/*---------------------------------------------------------------------------*\
| =========                 |                                                 |
| \\      /  F ield         | OpenFOAM: The Open Source CFD Toolbox           |
|  \\    /   O peration     | Version:  v2012                                 |
|   \\  /    A nd           | Website:  www.openfoam.com                      |
|    \\/     M anipulation  |                                                 |
\*---------------------------------------------------------------------------*/
Build  : _7bdb509494-20201222 OPENFOAM=2012
Arch   : "LSB;label=32;scalar=64"
Exec   : simpleFoam
Date   : Feb 23 2023
Time   : 20:04:37
Host   : johnsDesktop
PID    : 12764
I/O    : uncollated
Case   : /home/john/of_runs/cases/dbl_0_35_8-00180_9
nProcs : 1
trapFpe: Floating point exception trapping enabled (FOAM_SIGFPE).
fileModificationChecking : Monitoring run-time modified files using timeStampMaster (fileModificationSkew 5, maxFileModificationPolls 20)
allowSystemOperations : Allowing user-supplied system call operations

// * * * * * * * * * * * * * * * * * * * * * * * * * * * * * * * * * * * * * //
Create time

Create mesh for time = 0


SIMPLE: convergence criteria
    field p	 tolerance 1e-06
    field U	 tolerance 1e-06
    field "(k|epsilon|omega|f|v2|age)"	 tolerance 1e-05

Reading field p

Reading field U

Reading/calculating face flux field phi

Selecting incompressible transport model Newtonian
Selecting turbulence model type RAS
Selecting RAS turbulence model kOmegaSST
Selecting patchDistMethod meshWave
RAS
{
    RASModel        kOmegaSST;
    turbulence      on;
    printCoeffs     on;
    alphaK1         0.85;
    alphaK2         1;
    alphaOmega1     0.5;
    alphaOmega2     0.856;
    gamma1          0.555556;
    gamma2          0.44;
    beta1           0.075;
    beta2           0.0828;
    betaStar        0.09;
    a1              0.31;
    b1              1;
    c1              10;
    F3              false;
    decayControl    false;
    kInf            0;
    omegaInf        0;
}

No MRF models present

No finite volume options present

Starting time loop

Selecting finite volume options type scalarSemiImplicitSource
    Source: unitySource
    - selecting all cells
    - selected 6556 cell(s) with volume 0.03165
Time = 1

smoothSolver:  Solving for Ux, Initial residual = 0, Final residual = 0, No Iterations 0
smoothSolver:  Solving for Uy, Initial residual = 1, Final residual = 0.0705212, No Iterations 2
GAMG:  Solving for p, Initial residual = 1, Final residual = 0.0589698, No Iterations 6
time step continuity errors : sum local = 0.00372637, global = -0.00103468, cumulative = -0.00103468
smoothSolver:  Solving for omega, Initial residual = 0.266808, Final residual = 0.0126047, No Iterations 3
smoothSolver:  Solving for k, Initial residual = 1, Final residual = 0.080361, No Iterations 3
ExecutionTime = 0.05 s  ClockTime = 0 s

scalarTransport execute: age
smoothSolver:  Solving for age, Initial residual = 1, Final residual = 0.0837145, No Iterations 6

Time = 2

smoothSolver:  Solving for Ux, Initial residual = 0.585708, Final residual = 0.0499962, No Iterations 6
smoothSolver:  Solving for Uy, Initial residual = 0.281227, Final residual = 0.0192549, No Iterations 6
GAMG:  Solving for p, Initial residual = 0.050291, Final residual = 0.00472352, No Iterations 3
time step continuity errors : sum local = 0.0625354, global = 0.00354112, cumulative = 0.00250644
smoothSolver:  Solving for omega, Initial residual = 0.263374, Final residual = 0.0249235, No Iterations 3
smoothSolver:  Solving for k, Initial residual = 0.604659, Final residual = 0.0560093, No Iterations 4
ExecutionTime = 0.07 s  ClockTime = 0 s

scalarTransport execute: age
smoothSolver:  Solving for age, Initial residual = 0.58908, Final residual = 0.058354, No Iterations 7

Time = 3

smoothSolver:  Solving for Ux, Initial residual = 0.224591, Final residual = 0.0151424, No Iterations 6
smoothSolver:  Solving for Uy, Initial residual = 0.106572, Final residual = 0.00954827, No Iterations 5
GAMG:  Solving for p, Initial residual = 0.0532151, Final residual = 0.0034207, No Iterations 3
time step continuity errors : sum local = 0.0196443, global = 0.00143962, cumulative = 0.00394606
smoothSolver:  Solving for omega, Initial residual = 0.264766, Final residual = 0.0252983, No Iterations 4
smoothSolver:  Solving for k, Initial residual = 0.510674, Final residual = 0.0379935, No Iterations 5
ExecutionTime = 0.08 s  ClockTime = 0 s

scalarTransport execute: age
smoothSolver:  Solving for age, Initial residual = 0.401987, Final residual = 0.0369619, No Iterations 9

Time = 4

smoothSolver:  Solving for Ux, Initial residual = 0.112793, Final residual = 0.0097063, No Iterations 4
smoothSolver:  Solving for Uy, Initial residual = 0.0526413, Final residual = 0.00470555, No Iterations 4
GAMG:  Solving for p, Initial residual = 0.0862792, Final residual = 0.00385762, No Iterations 3
time step continuity errors : sum local = 0.0107737, global = 0.000503059, cumulative = 0.00444912
smoothSolver:  Solving for omega, Initial residual = 0.151352, Final residual = 0.0103408, No Iterations 5
smoothSolver:  Solving for k, Initial residual = 0.439822, Final residual = 0.0368791, No Iterations 5
ExecutionTime = 0.09 s  ClockTime = 0 s

scalarTransport execute: age
smoothSolver:  Solving for age, Initial residual = 0.292361, Final residual = 0.0250427, No Iterations 9

Time = 5

smoothSolver:  Solving for Ux, Initial residual = 0.0695298, Final residual = 0.0059186, No Iterations 5
smoothSolver:  Solving for Uy, Initial residual = 0.0311644, Final residual = 0.00209002, No Iterations 5
GAMG:  Solving for p, Initial residual = 0.0769403, Final residual = 0.00326454, No Iterations 2
time step continuity errors : sum local = 0.00811255, global = -4.16636e-05, cumulative = 0.00440745
smoothSolver:  Solving for omega, Initial residual = 0.105251, Final residual = 0.00789476, No Iterations 5
smoothSolver:  Solving for k, Initial residual = 0.343269, Final residual = 0.0311283, No Iterations 5
ExecutionTime = 0.11 s  ClockTime = 0 s

scalarTransport execute: age
smoothSolver:  Solving for age, Initial residual = 0.222498, Final residual = 0.0214873, No Iterations 9

Time = 6

smoothSolver:  Solving for Ux, Initial residual = 0.0495353, Final residual = 0.00337305, No Iterations 6
smoothSolver:  Solving for Uy, Initial residual = 0.0238454, Final residual = 0.00184335, No Iterations 5
GAMG:  Solving for p, Initial residual = 0.0613556, Final residual = 0.00332399, No Iterations 2
time step continuity errors : sum local = 0.00842304, global = -0.000476798, cumulative = 0.00393066
smoothSolver:  Solving for omega, Initial residual = 0.0828503, Final residual = 0.00664708, No Iterations 5
smoothSolver:  Solving for k, Initial residual = 0.274775, Final residual = 0.0264521, No Iterations 5
ExecutionTime = 0.12 s  ClockTime = 0 s

scalarTransport execute: age
smoothSolver:  Solving for age, Initial residual = 0.178243, Final residual = 0.0164615, No Iterations 10

Time = 7

smoothSolver:  Solving for Ux, Initial residual = 0.0403152, Final residual = 0.002707, No Iterations 6
smoothSolver:  Solving for Uy, Initial residual = 0.0202973, Final residual = 0.00167947, No Iterations 5
GAMG:  Solving for p, Initial residual = 0.0500815, Final residual = 0.00382629, No Iterations 2
time step continuity errors : sum local = 0.00994406, global = -0.00084002, cumulative = 0.00309064
smoothSolver:  Solving for omega, Initial residual = 0.0635755, Final residual = 0.00546155, No Iterations 5
smoothSolver:  Solving for k, Initial residual = 0.227623, Final residual = 0.0144641, No Iterations 6
ExecutionTime = 0.13 s  ClockTime = 0 s

scalarTransport execute: age
smoothSolver:  Solving for age, Initial residual = 0.148234, Final residual = 0.0147494, No Iterations 10

Time = 8

smoothSolver:  Solving for Ux, Initial residual = 0.0322821, Final residual = 0.00297315, No Iterations 5
smoothSolver:  Solving for Uy, Initial residual = 0.0182806, Final residual = 0.00157716, No Iterations 5
GAMG:  Solving for p, Initial residual = 0.0403299, Final residual = 0.00305516, No Iterations 2
time step continuity errors : sum local = 0.00838606, global = -0.000655069, cumulative = 0.00243557
smoothSolver:  Solving for omega, Initial residual = 0.0513379, Final residual = 0.00456754, No Iterations 5
smoothSolver:  Solving for k, Initial residual = 0.193974, Final residual = 0.012778, No Iterations 6
ExecutionTime = 0.15 s  ClockTime = 0 s

scalarTransport execute: age
smoothSolver:  Solving for age, Initial residual = 0.128869, Final residual = 0.011304, No Iterations 11

Time = 9

smoothSolver:  Solving for Ux, Initial residual = 0.0305962, Final residual = 0.00289357, No Iterations 5
smoothSolver:  Solving for Uy, Initial residual = 0.0168546, Final residual = 0.00145143, No Iterations 5
GAMG:  Solving for p, Initial residual = 0.0324093, Final residual = 0.00109834, No Iterations 2
time step continuity errors : sum local = 0.00320354, global = -0.000643894, cumulative = 0.00179167
smoothSolver:  Solving for omega, Initial residual = 0.0427555, Final residual = 0.00391579, No Iterations 5
smoothSolver:  Solving for k, Initial residual = 0.168376, Final residual = 0.0114359, No Iterations 6
ExecutionTime = 0.16 s  ClockTime = 0 s

scalarTransport execute: age
smoothSolver:  Solving for age, Initial residual = 0.112375, Final residual = 0.0101735, No Iterations 11

Time = 10

smoothSolver:  Solving for Ux, Initial residual = 0.027137, Final residual = 0.0026839, No Iterations 5
smoothSolver:  Solving for Uy, Initial residual = 0.0157956, Final residual = 0.00141048, No Iterations 5
GAMG:  Solving for p, Initial residual = 0.0272419, Final residual = 0.000780421, No Iterations 2
time step continuity errors : sum local = 0.00230882, global = -0.00047175, cumulative = 0.00131992
smoothSolver:  Solving for omega, Initial residual = 0.0358269, Final residual = 0.00337666, No Iterations 5
smoothSolver:  Solving for k, Initial residual = 0.148403, Final residual = 0.0103332, No Iterations 6
ExecutionTime = 0.17 s  ClockTime = 0 s

scalarTransport execute: age
smoothSolver:  Solving for age, Initial residual = 0.0977224, Final residual = 0.00902613, No Iterations 11

Time = 11

smoothSolver:  Solving for Ux, Initial residual = 0.0252005, Final residual = 0.00166957, No Iterations 6
smoothSolver:  Solving for Uy, Initial residual = 0.0149277, Final residual = 0.00138044, No Iterations 5
GAMG:  Solving for p, Initial residual = 0.023963, Final residual = 0.000855881, No Iterations 2
time step continuity errors : sum local = 0.00255966, global = -0.000326656, cumulative = 0.000993267
smoothSolver:  Solving for omega, Initial residual = 0.0304401, Final residual = 0.00293315, No Iterations 5
smoothSolver:  Solving for k, Initial residual = 0.132429, Final residual = 0.0094099, No Iterations 6
ExecutionTime = 0.18 s  ClockTime = 0 s

scalarTransport execute: age
smoothSolver:  Solving for age, Initial residual = 0.0852687, Final residual = 0.00812116, No Iterations 11

Time = 12

smoothSolver:  Solving for Ux, Initial residual = 0.0236413, Final residual = 0.00158637, No Iterations 6
smoothSolver:  Solving for Uy, Initial residual = 0.0143441, Final residual = 0.00135845, No Iterations 5
GAMG:  Solving for p, Initial residual = 0.021814, Final residual = 0.000831394, No Iterations 2
time step continuity errors : sum local = 0.00250795, global = -0.000166785, cumulative = 0.000826481
smoothSolver:  Solving for omega, Initial residual = 0.0261797, Final residual = 0.00256976, No Iterations 5
smoothSolver:  Solving for k, Initial residual = 0.11938, Final residual = 0.00862791, No Iterations 6
ExecutionTime = 0.2 s  ClockTime = 0 s

scalarTransport execute: age
smoothSolver:  Solving for age, Initial residual = 0.0742451, Final residual = 0.00734817, No Iterations 11

Time = 13

smoothSolver:  Solving for Ux, Initial residual = 0.0223455, Final residual = 0.0015104, No Iterations 6
smoothSolver:  Solving for Uy, Initial residual = 0.0138794, Final residual = 0.00134078, No Iterations 5
GAMG:  Solving for p, Initial residual = 0.0204019, Final residual = 0.000766854, No Iterations 2
time step continuity errors : sum local = 0.00232553, global = 8.22863e-06, cumulative = 0.00083471
smoothSolver:  Solving for omega, Initial residual = 0.0227503, Final residual = 0.00226705, No Iterations 5
smoothSolver:  Solving for k, Initial residual = 0.108555, Final residual = 0.00795782, No Iterations 6
ExecutionTime = 0.21 s  ClockTime = 0 s

scalarTransport execute: age
smoothSolver:  Solving for age, Initial residual = 0.0654103, Final residual = 0.00565468, No Iterations 12

Time = 14

smoothSolver:  Solving for Ux, Initial residual = 0.0211441, Final residual = 0.00143557, No Iterations 6
smoothSolver:  Solving for Uy, Initial residual = 0.0134895, Final residual = 0.00132512, No Iterations 5
GAMG:  Solving for p, Initial residual = 0.0193224, Final residual = 0.000731935, No Iterations 2
time step continuity errors : sum local = 0.00221913, global = 0.000163909, cumulative = 0.000998619
smoothSolver:  Solving for omega, Initial residual = 0.0199618, Final residual = 0.0012871, No Iterations 6
smoothSolver:  Solving for k, Initial residual = 0.0991965, Final residual = 0.00736288, No Iterations 6
ExecutionTime = 0.22 s  ClockTime = 0 s

scalarTransport execute: age
smoothSolver:  Solving for age, Initial residual = 0.056372, Final residual = 0.00509279, No Iterations 12

Time = 15

smoothSolver:  Solving for Ux, Initial residual = 0.0199693, Final residual = 0.00135832, No Iterations 6
smoothSolver:  Solving for Uy, Initial residual = 0.0131806, Final residual = 0.00130653, No Iterations 5
GAMG:  Solving for p, Initial residual = 0.0183854, Final residual = 0.000709813, No Iterations 2
time step continuity errors : sum local = 0.00214664, global = 0.000280742, cumulative = 0.00127936
smoothSolver:  Solving for omega, Initial residual = 0.0175081, Final residual = 0.00114358, No Iterations 6
smoothSolver:  Solving for k, Initial residual = 0.0911161, Final residual = 0.00683862, No Iterations 6
ExecutionTime = 0.24 s  ClockTime = 0 s

scalarTransport execute: age
smoothSolver:  Solving for age, Initial residual = 0.0492806, Final residual = 0.00458597, No Iterations 12

Time = 16

smoothSolver:  Solving for Ux, Initial residual = 0.0189007, Final residual = 0.00128279, No Iterations 6
smoothSolver:  Solving for Uy, Initial residual = 0.0128932, Final residual = 0.00128643, No Iterations 5
GAMG:  Solving for p, Initial residual = 0.0176733, Final residual = 0.0007115, No Iterations 2
time step continuity errors : sum local = 0.00213912, global = 0.000346643, cumulative = 0.001626
smoothSolver:  Solving for omega, Initial residual = 0.0154733, Final residual = 0.00102222, No Iterations 6
smoothSolver:  Solving for k, Initial residual = 0.0842205, Final residual = 0.00638069, No Iterations 6
ExecutionTime = 0.25 s  ClockTime = 0 s

scalarTransport execute: age
smoothSolver:  Solving for age, Initial residual = 0.0432521, Final residual = 0.00410926, No Iterations 12

Time = 17

smoothSolver:  Solving for Ux, Initial residual = 0.0179095, Final residual = 0.00121476, No Iterations 6
smoothSolver:  Solving for Uy, Initial residual = 0.0126611, Final residual = 0.00126567, No Iterations 5
GAMG:  Solving for p, Initial residual = 0.0170267, Final residual = 0.000704033, No Iterations 2
time step continuity errors : sum local = 0.0020997, global = 0.000368404, cumulative = 0.00199441
smoothSolver:  Solving for omega, Initial residual = 0.0137811, Final residual = 0.000918724, No Iterations 6
smoothSolver:  Solving for k, Initial residual = 0.0782677, Final residual = 0.00597738, No Iterations 6
ExecutionTime = 0.26 s  ClockTime = 0 s

scalarTransport execute: age
smoothSolver:  Solving for age, Initial residual = 0.0382453, Final residual = 0.00366004, No Iterations 12

Time = 18

smoothSolver:  Solving for Ux, Initial residual = 0.0170128, Final residual = 0.00115418, No Iterations 6
smoothSolver:  Solving for Uy, Initial residual = 0.0124502, Final residual = 0.000813934, No Iterations 6
GAMG:  Solving for p, Initial residual = 0.0164835, Final residual = 0.000677844, No Iterations 2
time step continuity errors : sum local = 0.00200298, global = 0.000368885, cumulative = 0.00236329
smoothSolver:  Solving for omega, Initial residual = 0.0123512, Final residual = 0.000829518, No Iterations 6
smoothSolver:  Solving for k, Initial residual = 0.073067, Final residual = 0.00561908, No Iterations 6
ExecutionTime = 0.27 s  ClockTime = 0 s

scalarTransport execute: age
smoothSolver:  Solving for age, Initial residual = 0.0337836, Final residual = 0.00324539, No Iterations 12

Time = 19

smoothSolver:  Solving for Ux, Initial residual = 0.0162772, Final residual = 0.00110691, No Iterations 6
smoothSolver:  Solving for Uy, Initial residual = 0.012161, Final residual = 0.00121519, No Iterations 5
GAMG:  Solving for p, Initial residual = 0.0159419, Final residual = 0.000647825, No Iterations 2
time step continuity errors : sum local = 0.00189505, global = 0.000358231, cumulative = 0.00272152
smoothSolver:  Solving for omega, Initial residual = 0.0111451, Final residual = 0.000752516, No Iterations 6
smoothSolver:  Solving for k, Initial residual = 0.0684904, Final residual = 0.00529893, No Iterations 6
ExecutionTime = 0.29 s  ClockTime = 0 s

scalarTransport execute: age
smoothSolver:  Solving for age, Initial residual = 0.0300033, Final residual = 0.00286155, No Iterations 12

Time = 20

smoothSolver:  Solving for Ux, Initial residual = 0.0155419, Final residual = 0.00105885, No Iterations 6
smoothSolver:  Solving for Uy, Initial residual = 0.0119742, Final residual = 0.00119719, No Iterations 5
GAMG:  Solving for p, Initial residual = 0.0153429, Final residual = 0.000611113, No Iterations 2
time step continuity errors : sum local = 0.00176934, global = 0.000340739, cumulative = 0.00306226
smoothSolver:  Solving for omega, Initial residual = 0.0101151, Final residual = 0.000685674, No Iterations 6
smoothSolver:  Solving for k, Initial residual = 0.0644276, Final residual = 0.00501099, No Iterations 6
ExecutionTime = 0.3 s  ClockTime = 0 s

scalarTransport execute: age
smoothSolver:  Solving for age, Initial residual = 0.0267278, Final residual = 0.00250523, No Iterations 12

Time = 21

smoothSolver:  Solving for Ux, Initial residual = 0.0148956, Final residual = 0.00101723, No Iterations 6
smoothSolver:  Solving for Uy, Initial residual = 0.0117559, Final residual = 0.000769025, No Iterations 6
GAMG:  Solving for p, Initial residual = 0.014835, Final residual = 0.000584371, No Iterations 2
time step continuity errors : sum local = 0.00167463, global = 0.000325748, cumulative = 0.00338801
smoothSolver:  Solving for omega, Initial residual = 0.00922445, Final residual = 0.000627168, No Iterations 6
smoothSolver:  Solving for k, Initial residual = 0.0607905, Final residual = 0.00475013, No Iterations 6
ExecutionTime = 0.31 s  ClockTime = 0 s

scalarTransport execute: age
smoothSolver:  Solving for age, Initial residual = 0.0239079, Final residual = 0.0021751, No Iterations 12

Time = 22

smoothSolver:  Solving for Ux, Initial residual = 0.0144016, Final residual = 0.00098569, No Iterations 6
smoothSolver:  Solving for Uy, Initial residual = 0.0114283, Final residual = 0.00074805, No Iterations 6
GAMG:  Solving for p, Initial residual = 0.014257, Final residual = 0.000557043, No Iterations 2
time step continuity errors : sum local = 0.00157972, global = 0.000311538, cumulative = 0.00369955
smoothSolver:  Solving for omega, Initial residual = 0.00844446, Final residual = 0.000575734, No Iterations 6
smoothSolver:  Solving for k, Initial residual = 0.0575198, Final residual = 0.004513, No Iterations 6
ExecutionTime = 0.33 s  ClockTime = 0 s

scalarTransport execute: age
smoothSolver:  Solving for age, Initial residual = 0.0214462, Final residual = 0.00184677, No Iterations 12

Time = 23

smoothSolver:  Solving for Ux, Initial residual = 0.0139527, Final residual = 0.000956028, No Iterations 6
smoothSolver:  Solving for Uy, Initial residual = 0.0110956, Final residual = 0.000727735, No Iterations 6
GAMG:  Solving for p, Initial residual = 0.0136246, Final residual = 0.000533151, No Iterations 2
time step continuity errors : sum local = 0.00149772, global = 0.000297147, cumulative = 0.0039967
smoothSolver:  Solving for omega, Initial residual = 0.00776392, Final residual = 0.000530303, No Iterations 6
smoothSolver:  Solving for k, Initial residual = 0.0545651, Final residual = 0.00429672, No Iterations 6
ExecutionTime = 0.34 s  ClockTime = 0 s

scalarTransport execute: age
smoothSolver:  Solving for age, Initial residual = 0.0193434, Final residual = 0.0018611, No Iterations 11

Time = 24

smoothSolver:  Solving for Ux, Initial residual = 0.0135211, Final residual = 0.000928571, No Iterations 6
smoothSolver:  Solving for Uy, Initial residual = 0.0107623, Final residual = 0.000708445, No Iterations 6
GAMG:  Solving for p, Initial residual = 0.0129502, Final residual = 0.000511735, No Iterations 2
time step continuity errors : sum local = 0.00142544, global = 0.000284018, cumulative = 0.00428071
smoothSolver:  Solving for omega, Initial residual = 0.00716079, Final residual = 0.000489949, No Iterations 6
smoothSolver:  Solving for k, Initial residual = 0.0518779, Final residual = 0.00409832, No Iterations 6
ExecutionTime = 0.35 s  ClockTime = 0 s

scalarTransport execute: age
smoothSolver:  Solving for age, Initial residual = 0.0175307, Final residual = 0.00158566, No Iterations 11

Time = 25

smoothSolver:  Solving for Ux, Initial residual = 0.0131166, Final residual = 0.000903643, No Iterations 6
smoothSolver:  Solving for Uy, Initial residual = 0.0104402, Final residual = 0.000689841, No Iterations 6
GAMG:  Solving for p, Initial residual = 0.0122784, Final residual = 0.000491627, No Iterations 2
time step continuity errors : sum local = 0.00135894, global = 0.000272454, cumulative = 0.00455317
smoothSolver:  Solving for omega, Initial residual = 0.00662277, Final residual = 0.000453918, No Iterations 6
smoothSolver:  Solving for k, Initial residual = 0.0494218, Final residual = 0.00391548, No Iterations 6
ExecutionTime = 0.37 s  ClockTime = 0 s

scalarTransport execute: age
smoothSolver:  Solving for age, Initial residual = 0.0159908, Final residual = 0.00134612, No Iterations 11

Time = 26

smoothSolver:  Solving for Ux, Initial residual = 0.0127651, Final residual = 0.000881892, No Iterations 6
smoothSolver:  Solving for Uy, Initial residual = 0.0101199, Final residual = 0.000670818, No Iterations 6
GAMG:  Solving for p, Initial residual = 0.0116119, Final residual = 0.000471483, No Iterations 2
time step continuity errors : sum local = 0.00129367, global = 0.000261943, cumulative = 0.00481511
smoothSolver:  Solving for omega, Initial residual = 0.00614566, Final residual = 0.000421657, No Iterations 6
smoothSolver:  Solving for k, Initial residual = 0.0471684, Final residual = 0.00374638, No Iterations 6
ExecutionTime = 0.38 s  ClockTime = 0 s

scalarTransport execute: age
smoothSolver:  Solving for age, Initial residual = 0.0146719, Final residual = 0.00137843, No Iterations 10

Time = 27

smoothSolver:  Solving for Ux, Initial residual = 0.0124555, Final residual = 0.000863568, No Iterations 6
smoothSolver:  Solving for Uy, Initial residual = 0.00982087, Final residual = 0.00065158, No Iterations 6
GAMG:  Solving for p, Initial residual = 0.0110539, Final residual = 0.000450477, No Iterations 2
time step continuity errors : sum local = 0.00122779, global = 0.00025214, cumulative = 0.00506725
smoothSolver:  Solving for omega, Initial residual = 0.00571771, Final residual = 0.00039265, No Iterations 6
smoothSolver:  Solving for k, Initial residual = 0.0450881, Final residual = 0.00358925, No Iterations 6
ExecutionTime = 0.39 s  ClockTime = 0 s

scalarTransport execute: age
smoothSolver:  Solving for age, Initial residual = 0.0136505, Final residual = 0.00122554, No Iterations 10

Time = 28

smoothSolver:  Solving for Ux, Initial residual = 0.0121817, Final residual = 0.000848295, No Iterations 6
smoothSolver:  Solving for Uy, Initial residual = 0.00953556, Final residual = 0.000631927, No Iterations 6
GAMG:  Solving for p, Initial residual = 0.0108812, Final residual = 0.00043003, No Iterations 2
time step continuity errors : sum local = 0.00116553, global = 0.000243154, cumulative = 0.00531041
smoothSolver:  Solving for omega, Initial residual = 0.00534746, Final residual = 0.000366327, No Iterations 6
smoothSolver:  Solving for k, Initial residual = 0.0431643, Final residual = 0.00344276, No Iterations 6
ExecutionTime = 0.4 s  ClockTime = 0 s

scalarTransport execute: age
smoothSolver:  Solving for age, Initial residual = 0.0128773, Final residual = 0.00111256, No Iterations 10

Time = 29

smoothSolver:  Solving for Ux, Initial residual = 0.0119422, Final residual = 0.000836375, No Iterations 6
smoothSolver:  Solving for Uy, Initial residual = 0.00927365, Final residual = 0.000611927, No Iterations 6
GAMG:  Solving for p, Initial residual = 0.0108971, Final residual = 0.000411711, No Iterations 2
time step continuity errors : sum local = 0.00111035, global = 0.000235608, cumulative = 0.00554601
smoothSolver:  Solving for omega, Initial residual = 0.00500613, Final residual = 0.000342738, No Iterations 6
smoothSolver:  Solving for k, Initial residual = 0.0413682, Final residual = 0.00330535, No Iterations 6
ExecutionTime = 0.42 s  ClockTime = 0 s

scalarTransport execute: age
smoothSolver:  Solving for age, Initial residual = 0.0122231, Final residual = 0.00103324, No Iterations 10

Time = 30

smoothSolver:  Solving for Ux, Initial residual = 0.011773, Final residual = 0.000827507, No Iterations 6
smoothSolver:  Solving for Uy, Initial residual = 0.00901864, Final residual = 0.000591577, No Iterations 6
GAMG:  Solving for p, Initial residual = 0.0110934, Final residual = 0.000403479, No Iterations 2
time step continuity errors : sum local = 0.00108431, global = 0.000229673, cumulative = 0.00577569
smoothSolver:  Solving for omega, Initial residual = 0.00470277, Final residual = 0.000321348, No Iterations 6
smoothSolver:  Solving for k, Initial residual = 0.0396903, Final residual = 0.00317626, No Iterations 6
ExecutionTime = 0.43 s  ClockTime = 0 s

scalarTransport execute: age
smoothSolver:  Solving for age, Initial residual = 0.0118492, Final residual = 0.00117169, No Iterations 9

Time = 31

smoothSolver:  Solving for Ux, Initial residual = 0.0116755, Final residual = 0.000821544, No Iterations 6
smoothSolver:  Solving for Uy, Initial residual = 0.00875389, Final residual = 0.000570892, No Iterations 6
GAMG:  Solving for p, Initial residual = 0.011085, Final residual = 0.000411241, No Iterations 2
time step continuity errors : sum local = 0.00109731, global = 0.000224682, cumulative = 0.00600037
smoothSolver:  Solving for omega, Initial residual = 0.00442684, Final residual = 0.000301796, No Iterations 6
smoothSolver:  Solving for k, Initial residual = 0.0381189, Final residual = 0.00305485, No Iterations 6
ExecutionTime = 0.44 s  ClockTime = 0 s

scalarTransport execute: age
smoothSolver:  Solving for age, Initial residual = 0.0113566, Final residual = 0.000984903, No Iterations 10

Time = 32

smoothSolver:  Solving for Ux, Initial residual = 0.0116299, Final residual = 0.0008178, No Iterations 6
smoothSolver:  Solving for Uy, Initial residual = 0.00848448, Final residual = 0.000844891, No Iterations 5
GAMG:  Solving for p, Initial residual = 0.0110517, Final residual = 0.000421537, No Iterations 2
time step continuity errors : sum local = 0.00111942, global = 0.000218702, cumulative = 0.00621907
smoothSolver:  Solving for omega, Initial residual = 0.004176, Final residual = 0.000283934, No Iterations 6
smoothSolver:  Solving for k, Initial residual = 0.0366394, Final residual = 0.00294009, No Iterations 6
ExecutionTime = 0.46 s  ClockTime = 0 s

scalarTransport execute: age
smoothSolver:  Solving for age, Initial residual = 0.0111176, Final residual = 0.000984816, No Iterations 10

Time = 33

smoothSolver:  Solving for Ux, Initial residual = 0.011593, Final residual = 0.000814279, No Iterations 6
smoothSolver:  Solving for Uy, Initial residual = 0.00826539, Final residual = 0.000821808, No Iterations 5
GAMG:  Solving for p, Initial residual = 0.0108571, Final residual = 0.000430736, No Iterations 2
time step continuity errors : sum local = 0.00113847, global = 0.000212786, cumulative = 0.00643186
smoothSolver:  Solving for omega, Initial residual = 0.00394562, Final residual = 0.000267572, No Iterations 6
smoothSolver:  Solving for k, Initial residual = 0.0352395, Final residual = 0.00283141, No Iterations 6
ExecutionTime = 0.47 s  ClockTime = 0 s

scalarTransport execute: age
smoothSolver:  Solving for age, Initial residual = 0.0109182, Final residual = 0.000997669, No Iterations 10

Time = 34

smoothSolver:  Solving for Ux, Initial residual = 0.0116106, Final residual = 0.000813675, No Iterations 6
smoothSolver:  Solving for Uy, Initial residual = 0.00800588, Final residual = 0.000793595, No Iterations 5
GAMG:  Solving for p, Initial residual = 0.0106148, Final residual = 0.000435342, No Iterations 2
time step continuity errors : sum local = 0.00114623, global = 0.000207047, cumulative = 0.0066389
smoothSolver:  Solving for omega, Initial residual = 0.0037332, Final residual = 0.000252484, No Iterations 6
smoothSolver:  Solving for k, Initial residual = 0.0339165, Final residual = 0.00272849, No Iterations 6
ExecutionTime = 0.48 s  ClockTime = 0 s

scalarTransport execute: age
smoothSolver:  Solving for age, Initial residual = 0.0107802, Final residual = 0.0010148, No Iterations 10

Time = 35

smoothSolver:  Solving for Ux, Initial residual = 0.0116589, Final residual = 0.000815495, No Iterations 6
smoothSolver:  Solving for Uy, Initial residual = 0.00770007, Final residual = 0.000760965, No Iterations 5
GAMG:  Solving for p, Initial residual = 0.0104011, Final residual = 0.000429499, No Iterations 2
time step continuity errors : sum local = 0.00112706, global = 0.000195731, cumulative = 0.00683463
smoothSolver:  Solving for omega, Initial residual = 0.00353936, Final residual = 0.000238552, No Iterations 6
smoothSolver:  Solving for k, Initial residual = 0.0326629, Final residual = 0.00263086, No Iterations 6
ExecutionTime = 0.5 s  ClockTime = 0 s

scalarTransport execute: age
smoothSolver:  Solving for age, Initial residual = 0.0107058, Final residual = 0.00102622, No Iterations 10

Time = 36

smoothSolver:  Solving for Ux, Initial residual = 0.0117309, Final residual = 0.00081935, No Iterations 6
smoothSolver:  Solving for Uy, Initial residual = 0.00737079, Final residual = 0.000726419, No Iterations 5
GAMG:  Solving for p, Initial residual = 0.0100794, Final residual = 0.000422404, No Iterations 2
time step continuity errors : sum local = 0.00110289, global = 0.000184756, cumulative = 0.00701939
smoothSolver:  Solving for omega, Initial residual = 0.00336011, Final residual = 0.000225572, No Iterations 6
smoothSolver:  Solving for k, Initial residual = 0.0314776, Final residual = 0.00253837, No Iterations 6
ExecutionTime = 0.51 s  ClockTime = 0 s

scalarTransport execute: age
smoothSolver:  Solving for age, Initial residual = 0.0106501, Final residual = 0.00104026, No Iterations 10

Time = 37

smoothSolver:  Solving for Ux, Initial residual = 0.0117975, Final residual = 0.000823217, No Iterations 6
smoothSolver:  Solving for Uy, Initial residual = 0.00704366, Final residual = 0.000692296, No Iterations 5
GAMG:  Solving for p, Initial residual = 0.00980459, Final residual = 0.000414981, No Iterations 2
time step continuity errors : sum local = 0.00107946, global = 0.00017466, cumulative = 0.00719405
smoothSolver:  Solving for omega, Initial residual = 0.00319539, Final residual = 0.000213555, No Iterations 6
smoothSolver:  Solving for k, Initial residual = 0.0303525, Final residual = 0.00245061, No Iterations 6
ExecutionTime = 0.52 s  ClockTime = 0 s

scalarTransport execute: age
smoothSolver:  Solving for age, Initial residual = 0.0106033, Final residual = 0.00105204, No Iterations 10

Time = 38

smoothSolver:  Solving for Ux, Initial residual = 0.0118514, Final residual = 0.000827203, No Iterations 6
smoothSolver:  Solving for Uy, Initial residual = 0.0067297, Final residual = 0.000659622, No Iterations 5
GAMG:  Solving for p, Initial residual = 0.00962946, Final residual = 0.000412831, No Iterations 2
time step continuity errors : sum local = 0.00107068, global = 0.0001659, cumulative = 0.00735995
smoothSolver:  Solving for omega, Initial residual = 0.00304047, Final residual = 0.000202319, No Iterations 6
smoothSolver:  Solving for k, Initial residual = 0.0292845, Final residual = 0.00236734, No Iterations 6
ExecutionTime = 0.53 s  ClockTime = 0 s

scalarTransport execute: age
smoothSolver:  Solving for age, Initial residual = 0.0105213, Final residual = 0.00090445, No Iterations 11

Time = 39

smoothSolver:  Solving for Ux, Initial residual = 0.011893, Final residual = 0.00083088, No Iterations 6
smoothSolver:  Solving for Uy, Initial residual = 0.00645022, Final residual = 0.000629144, No Iterations 5
GAMG:  Solving for p, Initial residual = 0.00955777, Final residual = 0.000422852, No Iterations 2
time step continuity errors : sum local = 0.00109432, global = 0.000158975, cumulative = 0.00751892
smoothSolver:  Solving for omega, Initial residual = 0.0028912, Final residual = 0.0001915, No Iterations 6
smoothSolver:  Solving for k, Initial residual = 0.0282756, Final residual = 0.00228856, No Iterations 6
ExecutionTime = 0.55 s  ClockTime = 0 s

scalarTransport execute: age
smoothSolver:  Solving for age, Initial residual = 0.0104659, Final residual = 0.000915916, No Iterations 11

Time = 40

smoothSolver:  Solving for Ux, Initial residual = 0.0119404, Final residual = 0.000833989, No Iterations 6
smoothSolver:  Solving for Uy, Initial residual = 0.00619079, Final residual = 0.000601345, No Iterations 5
GAMG:  Solving for p, Initial residual = 0.00948949, Final residual = 0.000443379, No Iterations 2
time step continuity errors : sum local = 0.00114598, global = 0.000154245, cumulative = 0.00767317
smoothSolver:  Solving for omega, Initial residual = 0.00275826, Final residual = 0.000181475, No Iterations 6
smoothSolver:  Solving for k, Initial residual = 0.0273213, Final residual = 0.00221374, No Iterations 6
ExecutionTime = 0.56 s  ClockTime = 0 s

scalarTransport execute: age
smoothSolver:  Solving for age, Initial residual = 0.0104137, Final residual = 0.000931531, No Iterations 11

Time = 41

smoothSolver:  Solving for Ux, Initial residual = 0.0120149, Final residual = 0.0008368, No Iterations 6
smoothSolver:  Solving for Uy, Initial residual = 0.00595209, Final residual = 0.000576446, No Iterations 5
GAMG:  Solving for p, Initial residual = 0.00941928, Final residual = 0.00047048, No Iterations 2
time step continuity errors : sum local = 0.00121518, global = 0.000151707, cumulative = 0.00782488
smoothSolver:  Solving for omega, Initial residual = 0.00263384, Final residual = 0.000172171, No Iterations 6
smoothSolver:  Solving for k, Initial residual = 0.0264181, Final residual = 0.0021425, No Iterations 6
ExecutionTime = 0.57 s  ClockTime = 0 s

scalarTransport execute: age
smoothSolver:  Solving for age, Initial residual = 0.0103364, Final residual = 0.000952081, No Iterations 11

Time = 42

smoothSolver:  Solving for Ux, Initial residual = 0.0121065, Final residual = 0.000839539, No Iterations 6
smoothSolver:  Solving for Uy, Initial residual = 0.00573827, Final residual = 0.00055467, No Iterations 5
GAMG:  Solving for p, Initial residual = 0.00938063, Final residual = 0.000502606, No Iterations 2
time step continuity errors : sum local = 0.00129741, global = 0.00015555, cumulative = 0.00798043
smoothSolver:  Solving for omega, Initial residual = 0.00251658, Final residual = 0.000163456, No Iterations 6
smoothSolver:  Solving for k, Initial residual = 0.0255643, Final residual = 0.00207476, No Iterations 6
ExecutionTime = 0.59 s  ClockTime = 0 s

scalarTransport execute: age
smoothSolver:  Solving for age, Initial residual = 0.010259, Final residual = 0.00097214, No Iterations 11

Time = 43

smoothSolver:  Solving for Ux, Initial residual = 0.012182, Final residual = 0.000841404, No Iterations 6
smoothSolver:  Solving for Uy, Initial residual = 0.00556048, Final residual = 0.000536322, No Iterations 5
GAMG:  Solving for p, Initial residual = 0.00938242, Final residual = 0.000528462, No Iterations 2
time step continuity errors : sum local = 0.00136471, global = 0.00016153, cumulative = 0.00814196
smoothSolver:  Solving for omega, Initial residual = 0.00240863, Final residual = 0.000239332, No Iterations 5
smoothSolver:  Solving for k, Initial residual = 0.0247733, Final residual = 0.00201158, No Iterations 6
ExecutionTime = 0.6 s  ClockTime = 0 s

scalarTransport execute: age
smoothSolver:  Solving for age, Initial residual = 0.0102092, Final residual = 0.000992659, No Iterations 11

Time = 44

smoothSolver:  Solving for Ux, Initial residual = 0.0122606, Final residual = 0.000844409, No Iterations 6
smoothSolver:  Solving for Uy, Initial residual = 0.00541923, Final residual = 0.000521858, No Iterations 5
GAMG:  Solving for p, Initial residual = 0.00941644, Final residual = 0.000552809, No Iterations 2
time step continuity errors : sum local = 0.00142869, global = 0.000168865, cumulative = 0.00831082
smoothSolver:  Solving for omega, Initial residual = 0.00231893, Final residual = 0.000228629, No Iterations 5
smoothSolver:  Solving for k, Initial residual = 0.0240317, Final residual = 0.00195183, No Iterations 6
ExecutionTime = 0.61 s  ClockTime = 0 s

scalarTransport execute: age
smoothSolver:  Solving for age, Initial residual = 0.0101393, Final residual = 0.00101126, No Iterations 11

Time = 45

smoothSolver:  Solving for Ux, Initial residual = 0.0123351, Final residual = 0.000847796, No Iterations 6
smoothSolver:  Solving for Uy, Initial residual = 0.00531133, Final residual = 0.000511144, No Iterations 5
GAMG:  Solving for p, Initial residual = 0.00946144, Final residual = 0.000573696, No Iterations 2
time step continuity errors : sum local = 0.0014843, global = 0.000176372, cumulative = 0.00848719
smoothSolver:  Solving for omega, Initial residual = 0.00223445, Final residual = 0.000218464, No Iterations 5
smoothSolver:  Solving for k, Initial residual = 0.0233242, Final residual = 0.00189459, No Iterations 6
ExecutionTime = 0.62 s  ClockTime = 0 s

scalarTransport execute: age
smoothSolver:  Solving for age, Initial residual = 0.0101253, Final residual = 0.000913963, No Iterations 12

Time = 46

smoothSolver:  Solving for Ux, Initial residual = 0.0124016, Final residual = 0.00085163, No Iterations 6
smoothSolver:  Solving for Uy, Initial residual = 0.00523344, Final residual = 0.000504197, No Iterations 5
GAMG:  Solving for p, Initial residual = 0.00948846, Final residual = 0.000591698, No Iterations 2
time step continuity errors : sum local = 0.00153272, global = 0.000183493, cumulative = 0.00867069
smoothSolver:  Solving for omega, Initial residual = 0.00215687, Final residual = 0.000208792, No Iterations 5
smoothSolver:  Solving for k, Initial residual = 0.0226472, Final residual = 0.00183959, No Iterations 6
ExecutionTime = 0.64 s  ClockTime = 0 s

scalarTransport execute: age
smoothSolver:  Solving for age, Initial residual = 0.0103395, Final residual = 0.000962013, No Iterations 12

Time = 47

smoothSolver:  Solving for Ux, Initial residual = 0.0124701, Final residual = 0.000855908, No Iterations 6
smoothSolver:  Solving for Uy, Initial residual = 0.00518812, Final residual = 0.000501736, No Iterations 5
GAMG:  Solving for p, Initial residual = 0.00952178, Final residual = 0.000607211, No Iterations 2
time step continuity errors : sum local = 0.00157379, global = 0.000189261, cumulative = 0.00885995
smoothSolver:  Solving for omega, Initial residual = 0.00208568, Final residual = 0.000199688, No Iterations 5
smoothSolver:  Solving for k, Initial residual = 0.0220019, Final residual = 0.00178689, No Iterations 6
ExecutionTime = 0.65 s  ClockTime = 0 s

scalarTransport execute: age
smoothSolver:  Solving for age, Initial residual = 0.0105461, Final residual = 0.00101904, No Iterations 12

Time = 48

smoothSolver:  Solving for Ux, Initial residual = 0.0125363, Final residual = 0.000860607, No Iterations 6
smoothSolver:  Solving for Uy, Initial residual = 0.00517711, Final residual = 0.000503436, No Iterations 5
GAMG:  Solving for p, Initial residual = 0.00958281, Final residual = 0.000618895, No Iterations 2
time step continuity errors : sum local = 0.00160406, global = 0.000191296, cumulative = 0.00905124
smoothSolver:  Solving for omega, Initial residual = 0.0020159, Final residual = 0.000191108, No Iterations 5
smoothSolver:  Solving for k, Initial residual = 0.0213853, Final residual = 0.00173637, No Iterations 6
ExecutionTime = 0.66 s  ClockTime = 0 s

scalarTransport execute: age
smoothSolver:  Solving for age, Initial residual = 0.0108896, Final residual = 0.000968543, No Iterations 13

Time = 49

smoothSolver:  Solving for Ux, Initial residual = 0.0126173, Final residual = 0.000865764, No Iterations 6
smoothSolver:  Solving for Uy, Initial residual = 0.00519271, Final residual = 0.0005085, No Iterations 5
GAMG:  Solving for p, Initial residual = 0.00962059, Final residual = 0.000630781, No Iterations 2
time step continuity errors : sum local = 0.00163631, global = 0.000191474, cumulative = 0.00924272
smoothSolver:  Solving for omega, Initial residual = 0.00194748, Final residual = 0.000182924, No Iterations 5
smoothSolver:  Solving for k, Initial residual = 0.0207948, Final residual = 0.00168786, No Iterations 6
ExecutionTime = 0.67 s  ClockTime = 0 s

scalarTransport execute: age
smoothSolver:  Solving for age, Initial residual = 0.0124923, Final residual = 0.00118899, No Iterations 11

Time = 50

smoothSolver:  Solving for Ux, Initial residual = 0.0126958, Final residual = 0.00087126, No Iterations 6
smoothSolver:  Solving for Uy, Initial residual = 0.00523838, Final residual = 0.000516573, No Iterations 5
GAMG:  Solving for p, Initial residual = 0.00962787, Final residual = 0.000644543, No Iterations 2
time step continuity errors : sum local = 0.00167342, global = 0.000190328, cumulative = 0.00943304
smoothSolver:  Solving for omega, Initial residual = 0.00188158, Final residual = 0.000175269, No Iterations 5
smoothSolver:  Solving for k, Initial residual = 0.0202258, Final residual = 0.00164112, No Iterations 6
ExecutionTime = 0.69 s  ClockTime = 0 s

scalarTransport execute: age
smoothSolver:  Solving for age, Initial residual = 0.0114616, Final residual = 0.00100694, No Iterations 12

Time = 51

smoothSolver:  Solving for Ux, Initial residual = 0.0127696, Final residual = 0.000876795, No Iterations 6
smoothSolver:  Solving for Uy, Initial residual = 0.00529635, Final residual = 0.000527169, No Iterations 5
GAMG:  Solving for p, Initial residual = 0.00968365, Final residual = 0.000648335, No Iterations 2
time step continuity errors : sum local = 0.00168516, global = 0.000187881, cumulative = 0.00962092
smoothSolver:  Solving for omega, Initial residual = 0.00182185, Final residual = 0.00016813, No Iterations 5
smoothSolver:  Solving for k, Initial residual = 0.0196797, Final residual = 0.0015961, No Iterations 6
ExecutionTime = 0.7 s  ClockTime = 1 s

scalarTransport execute: age
smoothSolver:  Solving for age, Initial residual = 0.0115284, Final residual = 0.00102257, No Iterations 12

Time = 52

smoothSolver:  Solving for Ux, Initial residual = 0.0128375, Final residual = 0.000882171, No Iterations 6
smoothSolver:  Solving for Uy, Initial residual = 0.00536747, Final residual = 0.000351565, No Iterations 6
GAMG:  Solving for p, Initial residual = 0.00998431, Final residual = 0.000652489, No Iterations 2
time step continuity errors : sum local = 0.00170049, global = 0.000186812, cumulative = 0.00980774
smoothSolver:  Solving for omega, Initial residual = 0.0017649, Final residual = 0.000161384, No Iterations 5
smoothSolver:  Solving for k, Initial residual = 0.0191537, Final residual = 0.00155268, No Iterations 6
ExecutionTime = 0.71 s  ClockTime = 1 s

scalarTransport execute: age
smoothSolver:  Solving for age, Initial residual = 0.0115747, Final residual = 0.00105029, No Iterations 12

Time = 53

smoothSolver:  Solving for Ux, Initial residual = 0.0129034, Final residual = 0.000886941, No Iterations 6
smoothSolver:  Solving for Uy, Initial residual = 0.00539946, Final residual = 0.000357165, No Iterations 6
GAMG:  Solving for p, Initial residual = 0.0103771, Final residual = 0.000661131, No Iterations 2
time step continuity errors : sum local = 0.00173629, global = 0.000186849, cumulative = 0.00999459
smoothSolver:  Solving for omega, Initial residual = 0.00171274, Final residual = 0.000154889, No Iterations 5
smoothSolver:  Solving for k, Initial residual = 0.0186466, Final residual = 0.00151065, No Iterations 6
ExecutionTime = 0.73 s  ClockTime = 1 s

scalarTransport execute: age
smoothSolver:  Solving for age, Initial residual = 0.0117938, Final residual = 0.00108518, No Iterations 12

Time = 54

smoothSolver:  Solving for Ux, Initial residual = 0.0129388, Final residual = 0.000890333, No Iterations 6
smoothSolver:  Solving for Uy, Initial residual = 0.00548617, Final residual = 0.000365736, No Iterations 6
GAMG:  Solving for p, Initial residual = 0.0108238, Final residual = 0.000685467, No Iterations 2
time step continuity errors : sum local = 0.00182151, global = 0.000193082, cumulative = 0.0101877
smoothSolver:  Solving for omega, Initial residual = 0.00165983, Final residual = 0.000148625, No Iterations 5
smoothSolver:  Solving for k, Initial residual = 0.0181567, Final residual = 0.00146998, No Iterations 6
ExecutionTime = 0.74 s  ClockTime = 1 s

scalarTransport execute: age
smoothSolver:  Solving for age, Initial residual = 0.0120689, Final residual = 0.00113388, No Iterations 12

Time = 55

smoothSolver:  Solving for Ux, Initial residual = 0.0129491, Final residual = 0.000892833, No Iterations 6
smoothSolver:  Solving for Uy, Initial residual = 0.00561364, Final residual = 0.000377175, No Iterations 6
GAMG:  Solving for p, Initial residual = 0.0109509, Final residual = 0.00070452, No Iterations 2
time step continuity errors : sum local = 0.00184816, global = 0.000200615, cumulative = 0.0103883
smoothSolver:  Solving for omega, Initial residual = 0.00160221, Final residual = 0.000142679, No Iterations 5
smoothSolver:  Solving for k, Initial residual = 0.0176851, Final residual = 0.0014307, No Iterations 6
ExecutionTime = 0.75 s  ClockTime = 1 s

scalarTransport execute: age
smoothSolver:  Solving for age, Initial residual = 0.0124232, Final residual = 0.00119664, No Iterations 12

Time = 56

smoothSolver:  Solving for Ux, Initial residual = 0.0129671, Final residual = 0.000894746, No Iterations 6
smoothSolver:  Solving for Uy, Initial residual = 0.00575945, Final residual = 0.000390874, No Iterations 6
GAMG:  Solving for p, Initial residual = 0.0110028, Final residual = 0.000697182, No Iterations 2
time step continuity errors : sum local = 0.00181088, global = 0.000208735, cumulative = 0.010597
smoothSolver:  Solving for omega, Initial residual = 0.00155901, Final residual = 0.000136679, No Iterations 5
smoothSolver:  Solving for k, Initial residual = 0.0172255, Final residual = 0.00139271, No Iterations 6
ExecutionTime = 0.77 s  ClockTime = 1 s

scalarTransport execute: age
smoothSolver:  Solving for age, Initial residual = 0.0126704, Final residual = 0.00123688, No Iterations 12

Time = 57

smoothSolver:  Solving for Ux, Initial residual = 0.012975, Final residual = 0.000896224, No Iterations 6
smoothSolver:  Solving for Uy, Initial residual = 0.00592821, Final residual = 0.000405779, No Iterations 6
GAMG:  Solving for p, Initial residual = 0.0110043, Final residual = 0.000680707, No Iterations 2
time step continuity errors : sum local = 0.00175051, global = 0.000216022, cumulative = 0.010813
smoothSolver:  Solving for omega, Initial residual = 0.00150895, Final residual = 0.000130836, No Iterations 5
smoothSolver:  Solving for k, Initial residual = 0.0167807, Final residual = 0.00135593, No Iterations 6
ExecutionTime = 0.78 s  ClockTime = 1 s

scalarTransport execute: age
smoothSolver:  Solving for age, Initial residual = 0.0130927, Final residual = 0.00129548, No Iterations 12

Time = 58

smoothSolver:  Solving for Ux, Initial residual = 0.0129509, Final residual = 0.000897493, No Iterations 6
smoothSolver:  Solving for Uy, Initial residual = 0.00613234, Final residual = 0.000421371, No Iterations 6
GAMG:  Solving for p, Initial residual = 0.0109984, Final residual = 0.000697193, No Iterations 2
time step continuity errors : sum local = 0.0017848, global = 0.000223091, cumulative = 0.0110361
smoothSolver:  Solving for omega, Initial residual = 0.00144715, Final residual = 0.000125543, No Iterations 5
smoothSolver:  Solving for k, Initial residual = 0.0163513, Final residual = 0.00132036, No Iterations 6
ExecutionTime = 0.79 s  ClockTime = 1 s

scalarTransport execute: age
smoothSolver:  Solving for age, Initial residual = 0.0135687, Final residual = 0.00117354, No Iterations 13

Time = 59

smoothSolver:  Solving for Ux, Initial residual = 0.0129255, Final residual = 0.000897909, No Iterations 6
smoothSolver:  Solving for Uy, Initial residual = 0.0063212, Final residual = 0.000436554, No Iterations 6
GAMG:  Solving for p, Initial residual = 0.0110102, Final residual = 0.000713365, No Iterations 2
time step continuity errors : sum local = 0.00181966, global = 0.000228759, cumulative = 0.0112649
smoothSolver:  Solving for omega, Initial residual = 0.0013994, Final residual = 0.000120522, No Iterations 5
smoothSolver:  Solving for k, Initial residual = 0.0159361, Final residual = 0.00128596, No Iterations 6
ExecutionTime = 0.8 s  ClockTime = 1 s

scalarTransport execute: age
smoothSolver:  Solving for age, Initial residual = 0.0142263, Final residual = 0.00122884, No Iterations 13

Time = 60

smoothSolver:  Solving for Ux, Initial residual = 0.0128901, Final residual = 0.000896509, No Iterations 6
smoothSolver:  Solving for Uy, Initial residual = 0.00650126, Final residual = 0.000451379, No Iterations 6
GAMG:  Solving for p, Initial residual = 0.0109694, Final residual = 0.000727974, No Iterations 2
time step continuity errors : sum local = 0.0018538, global = 0.000232922, cumulative = 0.0114978
smoothSolver:  Solving for omega, Initial residual = 0.00135687, Final residual = 0.000115801, No Iterations 5
smoothSolver:  Solving for k, Initial residual = 0.0155361, Final residual = 0.00125276, No Iterations 6
ExecutionTime = 0.82 s  ClockTime = 1 s

scalarTransport execute: age
smoothSolver:  Solving for age, Initial residual = 0.0149012, Final residual = 0.00147901, No Iterations 12

Time = 61

smoothSolver:  Solving for Ux, Initial residual = 0.0128214, Final residual = 0.000893745, No Iterations 6
smoothSolver:  Solving for Uy, Initial residual = 0.00667616, Final residual = 0.000465649, No Iterations 6
GAMG:  Solving for p, Initial residual = 0.0108633, Final residual = 0.000744743, No Iterations 2
time step continuity errors : sum local = 0.00189315, global = 0.000235156, cumulative = 0.011733
smoothSolver:  Solving for omega, Initial residual = 0.00131181, Final residual = 0.000111353, No Iterations 5
smoothSolver:  Solving for k, Initial residual = 0.0151503, Final residual = 0.00122066, No Iterations 6
ExecutionTime = 0.83 s  ClockTime = 1 s

scalarTransport execute: age
smoothSolver:  Solving for age, Initial residual = 0.0156484, Final residual = 0.00153669, No Iterations 12

Time = 62

smoothSolver:  Solving for Ux, Initial residual = 0.0127475, Final residual = 0.000889978, No Iterations 6
smoothSolver:  Solving for Uy, Initial residual = 0.00683536, Final residual = 0.000479204, No Iterations 6
GAMG:  Solving for p, Initial residual = 0.0106604, Final residual = 0.000758687, No Iterations 2
time step continuity errors : sum local = 0.00192402, global = 0.000235113, cumulative = 0.0119681
smoothSolver:  Solving for omega, Initial residual = 0.001269, Final residual = 0.000107143, No Iterations 5
smoothSolver:  Solving for k, Initial residual = 0.0147761, Final residual = 0.00118962, No Iterations 6
ExecutionTime = 0.84 s  ClockTime = 1 s

scalarTransport execute: age
smoothSolver:  Solving for age, Initial residual = 0.0166946, Final residual = 0.00166283, No Iterations 12

Time = 63

smoothSolver:  Solving for Ux, Initial residual = 0.0126575, Final residual = 0.000885197, No Iterations 6
smoothSolver:  Solving for Uy, Initial residual = 0.00697214, Final residual = 0.000491788, No Iterations 6
GAMG:  Solving for p, Initial residual = 0.0103728, Final residual = 0.000757663, No Iterations 2
time step continuity errors : sum local = 0.00191675, global = 0.00023416, cumulative = 0.0122022
smoothSolver:  Solving for omega, Initial residual = 0.00122443, Final residual = 0.00010315, No Iterations 5
smoothSolver:  Solving for k, Initial residual = 0.014416, Final residual = 0.00115963, No Iterations 6
ExecutionTime = 0.86 s  ClockTime = 1 s

scalarTransport execute: age
smoothSolver:  Solving for age, Initial residual = 0.0175173, Final residual = 0.00169548, No Iterations 12

Time = 64

smoothSolver:  Solving for Ux, Initial residual = 0.0125626, Final residual = 0.000879813, No Iterations 6
smoothSolver:  Solving for Uy, Initial residual = 0.00708597, Final residual = 0.000503315, No Iterations 6
GAMG:  Solving for p, Initial residual = 0.00994273, Final residual = 0.000737778, No Iterations 2
time step continuity errors : sum local = 0.00185861, global = 0.000230596, cumulative = 0.0124328
smoothSolver:  Solving for omega, Initial residual = 0.0011801, Final residual = 9.95171e-05, No Iterations 5
smoothSolver:  Solving for k, Initial residual = 0.0140692, Final residual = 0.00113067, No Iterations 6
ExecutionTime = 0.87 s  ClockTime = 1 s

scalarTransport execute: age
smoothSolver:  Solving for age, Initial residual = 0.0183366, Final residual = 0.00165013, No Iterations 12

Time = 65

smoothSolver:  Solving for Ux, Initial residual = 0.0124433, Final residual = 0.000874735, No Iterations 6
smoothSolver:  Solving for Uy, Initial residual = 0.00717486, Final residual = 0.000513441, No Iterations 6
GAMG:  Solving for p, Initial residual = 0.00960968, Final residual = 0.000721195, No Iterations 2
time step continuity errors : sum local = 0.00180837, global = 0.00022565, cumulative = 0.0126585
smoothSolver:  Solving for omega, Initial residual = 0.00114535, Final residual = 9.61723e-05, No Iterations 5
smoothSolver:  Solving for k, Initial residual = 0.0137327, Final residual = 0.00110264, No Iterations 6
ExecutionTime = 0.88 s  ClockTime = 1 s

scalarTransport execute: age
smoothSolver:  Solving for age, Initial residual = 0.0191102, Final residual = 0.00167605, No Iterations 12

Time = 66

smoothSolver:  Solving for Ux, Initial residual = 0.0123284, Final residual = 0.000869872, No Iterations 6
smoothSolver:  Solving for Uy, Initial residual = 0.00724339, Final residual = 0.000522125, No Iterations 6
GAMG:  Solving for p, Initial residual = 0.00938783, Final residual = 0.00070484, No Iterations 2
time step continuity errors : sum local = 0.00175909, global = 0.000219644, cumulative = 0.0128781
smoothSolver:  Solving for omega, Initial residual = 0.00111635, Final residual = 9.30804e-05, No Iterations 5
smoothSolver:  Solving for k, Initial residual = 0.0134059, Final residual = 0.00107553, No Iterations 6
ExecutionTime = 0.9 s  ClockTime = 1 s

scalarTransport execute: age
smoothSolver:  Solving for age, Initial residual = 0.019172, Final residual = 0.00189913, No Iterations 11

Time = 67

smoothSolver:  Solving for Ux, Initial residual = 0.0122232, Final residual = 0.000865022, No Iterations 6
smoothSolver:  Solving for Uy, Initial residual = 0.00728826, Final residual = 0.000529405, No Iterations 6
GAMG:  Solving for p, Initial residual = 0.00922415, Final residual = 0.000688406, No Iterations 2
time step continuity errors : sum local = 0.0017105, global = 0.000213053, cumulative = 0.0130912
smoothSolver:  Solving for omega, Initial residual = 0.00108885, Final residual = 9.011e-05, No Iterations 5
smoothSolver:  Solving for k, Initial residual = 0.013088, Final residual = 0.00104926, No Iterations 6
ExecutionTime = 0.91 s  ClockTime = 1 s

scalarTransport execute: age
smoothSolver:  Solving for age, Initial residual = 0.0192288, Final residual = 0.00185896, No Iterations 11

Time = 68

smoothSolver:  Solving for Ux, Initial residual = 0.0121334, Final residual = 0.000860043, No Iterations 6
smoothSolver:  Solving for Uy, Initial residual = 0.00732322, Final residual = 0.000535255, No Iterations 6
GAMG:  Solving for p, Initial residual = 0.00908904, Final residual = 0.000670179, No Iterations 2
time step continuity errors : sum local = 0.00165879, global = 0.00020598, cumulative = 0.0132972
smoothSolver:  Solving for omega, Initial residual = 0.00106377, Final residual = 8.73083e-05, No Iterations 5
smoothSolver:  Solving for k, Initial residual = 0.0127786, Final residual = 0.00102378, No Iterations 6
ExecutionTime = 0.92 s  ClockTime = 1 s

scalarTransport execute: age
smoothSolver:  Solving for age, Initial residual = 0.0184645, Final residual = 0.00174507, No Iterations 11

Time = 69

smoothSolver:  Solving for Ux, Initial residual = 0.0120731, Final residual = 0.000855019, No Iterations 6
smoothSolver:  Solving for Uy, Initial residual = 0.00734089, Final residual = 0.000539704, No Iterations 6
GAMG:  Solving for p, Initial residual = 0.00892961, Final residual = 0.000648915, No Iterations 2
time step continuity errors : sum local = 0.00160092, global = 0.000198834, cumulative = 0.013496
smoothSolver:  Solving for omega, Initial residual = 0.00103502, Final residual = 8.45743e-05, No Iterations 5
smoothSolver:  Solving for k, Initial residual = 0.0124779, Final residual = 0.000999103, No Iterations 6
ExecutionTime = 0.93 s  ClockTime = 1 s

scalarTransport execute: age
smoothSolver:  Solving for age, Initial residual = 0.0170942, Final residual = 0.00157166, No Iterations 11

Time = 70

smoothSolver:  Solving for Ux, Initial residual = 0.0120165, Final residual = 0.000850126, No Iterations 6
smoothSolver:  Solving for Uy, Initial residual = 0.00734414, Final residual = 0.000542936, No Iterations 6
GAMG:  Solving for p, Initial residual = 0.00870983, Final residual = 0.000628523, No Iterations 2
time step continuity errors : sum local = 0.00154611, global = 0.00018704, cumulative = 0.013683
smoothSolver:  Solving for omega, Initial residual = 0.00100929, Final residual = 8.19482e-05, No Iterations 5
smoothSolver:  Solving for k, Initial residual = 0.0121865, Final residual = 0.000975193, No Iterations 6
ExecutionTime = 0.95 s  ClockTime = 1 s

scalarTransport execute: age
smoothSolver:  Solving for age, Initial residual = 0.0155513, Final residual = 0.00145221, No Iterations 11

Time = 71

smoothSolver:  Solving for Ux, Initial residual = 0.0119732, Final residual = 0.000847456, No Iterations 6
smoothSolver:  Solving for Uy, Initial residual = 0.00732843, Final residual = 0.000544711, No Iterations 6
GAMG:  Solving for p, Initial residual = 0.00849891, Final residual = 0.000601594, No Iterations 2
time step continuity errors : sum local = 0.00147526, global = 0.000175104, cumulative = 0.0138581
smoothSolver:  Solving for omega, Initial residual = 0.000981522, Final residual = 7.94582e-05, No Iterations 5
smoothSolver:  Solving for k, Initial residual = 0.011903, Final residual = 0.000951998, No Iterations 6
ExecutionTime = 0.96 s  ClockTime = 1 s

scalarTransport execute: age
smoothSolver:  Solving for age, Initial residual = 0.0146149, Final residual = 0.00141839, No Iterations 11

Time = 72

smoothSolver:  Solving for Ux, Initial residual = 0.0119215, Final residual = 0.000844244, No Iterations 6
smoothSolver:  Solving for Uy, Initial residual = 0.00730156, Final residual = 0.000545689, No Iterations 6
GAMG:  Solving for p, Initial residual = 0.00832982, Final residual = 0.000578353, No Iterations 2
time step continuity errors : sum local = 0.00141284, global = 0.000163146, cumulative = 0.0140213
smoothSolver:  Solving for omega, Initial residual = 0.00095595, Final residual = 7.71036e-05, No Iterations 5
smoothSolver:  Solving for k, Initial residual = 0.0116284, Final residual = 0.000929472, No Iterations 6
ExecutionTime = 0.97 s  ClockTime = 1 s

scalarTransport execute: age
smoothSolver:  Solving for age, Initial residual = 0.0139219, Final residual = 0.00128649, No Iterations 12

Time = 73

smoothSolver:  Solving for Ux, Initial residual = 0.0118566, Final residual = 0.00083968, No Iterations 6
smoothSolver:  Solving for Uy, Initial residual = 0.00726381, Final residual = 0.000545707, No Iterations 6
GAMG:  Solving for p, Initial residual = 0.00819275, Final residual = 0.000557027, No Iterations 2
time step continuity errors : sum local = 0.00135447, global = 0.000150655, cumulative = 0.0141719
smoothSolver:  Solving for omega, Initial residual = 0.000931943, Final residual = 7.48789e-05, No Iterations 5
smoothSolver:  Solving for k, Initial residual = 0.0113617, Final residual = 0.000907568, No Iterations 6
ExecutionTime = 0.99 s  ClockTime = 1 s

scalarTransport execute: age
smoothSolver:  Solving for age, Initial residual = 0.0134572, Final residual = 0.00127935, No Iterations 12

Time = 74

smoothSolver:  Solving for Ux, Initial residual = 0.0117769, Final residual = 0.00083388, No Iterations 6
smoothSolver:  Solving for Uy, Initial residual = 0.00722226, Final residual = 0.00054494, No Iterations 6
GAMG:  Solving for p, Initial residual = 0.00813569, Final residual = 0.000538625, No Iterations 2
time step continuity errors : sum local = 0.00130374, global = 0.000137807, cumulative = 0.0143098
smoothSolver:  Solving for omega, Initial residual = 0.000909935, Final residual = 7.27532e-05, No Iterations 5
smoothSolver:  Solving for k, Initial residual = 0.011103, Final residual = 0.00088621, No Iterations 6
ExecutionTime = 1 s  ClockTime = 1 s

scalarTransport execute: age
smoothSolver:  Solving for age, Initial residual = 0.0133799, Final residual = 0.00123957, No Iterations 12

Time = 75

smoothSolver:  Solving for Ux, Initial residual = 0.0116936, Final residual = 0.000827309, No Iterations 6
smoothSolver:  Solving for Uy, Initial residual = 0.00717514, Final residual = 0.000543385, No Iterations 6
GAMG:  Solving for p, Initial residual = 0.00807872, Final residual = 0.000524553, No Iterations 2
time step continuity errors : sum local = 0.00126387, global = 0.00012628, cumulative = 0.014436
smoothSolver:  Solving for omega, Initial residual = 0.000890048, Final residual = 7.07187e-05, No Iterations 5
smoothSolver:  Solving for k, Initial residual = 0.0108516, Final residual = 0.000865342, No Iterations 6
ExecutionTime = 1.01 s  ClockTime = 1 s

scalarTransport execute: age
smoothSolver:  Solving for age, Initial residual = 0.0131324, Final residual = 0.00120458, No Iterations 12

Time = 76

smoothSolver:  Solving for Ux, Initial residual = 0.0116017, Final residual = 0.00082036, No Iterations 6
smoothSolver:  Solving for Uy, Initial residual = 0.00712226, Final residual = 0.000541023, No Iterations 6
GAMG:  Solving for p, Initial residual = 0.00802554, Final residual = 0.000516206, No Iterations 2
time step continuity errors : sum local = 0.00123825, global = 0.000116254, cumulative = 0.0145523
smoothSolver:  Solving for omega, Initial residual = 0.000868962, Final residual = 6.87635e-05, No Iterations 5
smoothSolver:  Solving for k, Initial residual = 0.010606, Final residual = 0.000844932, No Iterations 6
ExecutionTime = 1.03 s  ClockTime = 1 s

scalarTransport execute: age
smoothSolver:  Solving for age, Initial residual = 0.0129604, Final residual = 0.0011993, No Iterations 12

Time = 77

smoothSolver:  Solving for Ux, Initial residual = 0.0115073, Final residual = 0.000812925, No Iterations 6
smoothSolver:  Solving for Uy, Initial residual = 0.00706536, Final residual = 0.000537914, No Iterations 6
GAMG:  Solving for p, Initial residual = 0.00797911, Final residual = 0.000511909, No Iterations 2
time step continuity errors : sum local = 0.00122245, global = 0.000107999, cumulative = 0.0146603
smoothSolver:  Solving for omega, Initial residual = 0.000849657, Final residual = 6.68938e-05, No Iterations 5
smoothSolver:  Solving for k, Initial residual = 0.010365, Final residual = 0.000824923, No Iterations 6
ExecutionTime = 1.04 s  ClockTime = 1 s

scalarTransport execute: age
smoothSolver:  Solving for age, Initial residual = 0.0127775, Final residual = 0.00122327, No Iterations 12

Time = 78

smoothSolver:  Solving for Ux, Initial residual = 0.0114025, Final residual = 0.000804987, No Iterations 6
smoothSolver:  Solving for Uy, Initial residual = 0.00700212, Final residual = 0.000533857, No Iterations 6
GAMG:  Solving for p, Initial residual = 0.00793308, Final residual = 0.000509545, No Iterations 2
time step continuity errors : sum local = 0.00121095, global = 0.000102542, cumulative = 0.0147628
smoothSolver:  Solving for omega, Initial residual = 0.000830213, Final residual = 6.50436e-05, No Iterations 5
smoothSolver:  Solving for k, Initial residual = 0.0101283, Final residual = 0.0008053, No Iterations 6
ExecutionTime = 1.05 s  ClockTime = 1 s

scalarTransport execute: age
smoothSolver:  Solving for age, Initial residual = 0.0126277, Final residual = 0.00125304, No Iterations 12

Time = 79

smoothSolver:  Solving for Ux, Initial residual = 0.0112882, Final residual = 0.000796624, No Iterations 6
smoothSolver:  Solving for Uy, Initial residual = 0.00693543, Final residual = 0.0005288, No Iterations 6
GAMG:  Solving for p, Initial residual = 0.00793023, Final residual = 0.000504458, No Iterations 2
time step continuity errors : sum local = 0.00119279, global = 0.000108067, cumulative = 0.0148709
smoothSolver:  Solving for omega, Initial residual = 0.000810075, Final residual = 6.32209e-05, No Iterations 5
smoothSolver:  Solving for k, Initial residual = 0.00989582, Final residual = 0.000786011, No Iterations 6
ExecutionTime = 1.06 s  ClockTime = 1 s

scalarTransport execute: age
smoothSolver:  Solving for age, Initial residual = 0.0124036, Final residual = 0.00110451, No Iterations 13

Time = 80

smoothSolver:  Solving for Ux, Initial residual = 0.0111459, Final residual = 0.000786206, No Iterations 6
smoothSolver:  Solving for Uy, Initial residual = 0.00687106, Final residual = 0.000523375, No Iterations 6
GAMG:  Solving for p, Initial residual = 0.00792023, Final residual = 0.000508021, No Iterations 2
time step continuity errors : sum local = 0.00119566, global = 0.000104227, cumulative = 0.0149751
smoothSolver:  Solving for omega, Initial residual = 0.000794793, Final residual = 6.14706e-05, No Iterations 5
smoothSolver:  Solving for k, Initial residual = 0.00966698, Final residual = 0.000767068, No Iterations 6
ExecutionTime = 1.08 s  ClockTime = 1 s

scalarTransport execute: age
smoothSolver:  Solving for age, Initial residual = 0.0120906, Final residual = 0.00110636, No Iterations 13

Time = 81

smoothSolver:  Solving for Ux, Initial residual = 0.0110295, Final residual = 0.000777873, No Iterations 6
smoothSolver:  Solving for Uy, Initial residual = 0.00677793, Final residual = 0.000515059, No Iterations 6
GAMG:  Solving for p, Initial residual = 0.00791953, Final residual = 0.000500067, No Iterations 2
time step continuity errors : sum local = 0.00117062, global = 0.000102693, cumulative = 0.0150778
smoothSolver:  Solving for omega, Initial residual = 0.000775665, Final residual = 5.98105e-05, No Iterations 5
smoothSolver:  Solving for k, Initial residual = 0.00944206, Final residual = 0.000748418, No Iterations 6
ExecutionTime = 1.09 s  ClockTime = 1 s

scalarTransport execute: age
smoothSolver:  Solving for age, Initial residual = 0.0116632, Final residual = 0.00111056, No Iterations 13

Time = 82

smoothSolver:  Solving for Ux, Initial residual = 0.0108966, Final residual = 0.000768594, No Iterations 6
smoothSolver:  Solving for Uy, Initial residual = 0.00667919, Final residual = 0.000506765, No Iterations 6
GAMG:  Solving for p, Initial residual = 0.00789835, Final residual = 0.00049315, No Iterations 2
time step continuity errors : sum local = 0.00114736, global = 0.000102177, cumulative = 0.01518
smoothSolver:  Solving for omega, Initial residual = 0.000759388, Final residual = 5.81663e-05, No Iterations 5
smoothSolver:  Solving for k, Initial residual = 0.00922029, Final residual = 0.000730043, No Iterations 6
ExecutionTime = 1.1 s  ClockTime = 1 s

scalarTransport execute: age
smoothSolver:  Solving for age, Initial residual = 0.0112042, Final residual = 0.000979812, No Iterations 14

Time = 83

smoothSolver:  Solving for Ux, Initial residual = 0.0107534, Final residual = 0.000758551, No Iterations 6
smoothSolver:  Solving for Uy, Initial residual = 0.00656665, Final residual = 0.000497326, No Iterations 6
GAMG:  Solving for p, Initial residual = 0.00785653, Final residual = 0.000486171, No Iterations 2
time step continuity errors : sum local = 0.00112419, global = 0.000102118, cumulative = 0.0152821
smoothSolver:  Solving for omega, Initial residual = 0.000742711, Final residual = 5.65376e-05, No Iterations 5
smoothSolver:  Solving for k, Initial residual = 0.00900083, Final residual = 0.000711921, No Iterations 6
ExecutionTime = 1.12 s  ClockTime = 1 s

scalarTransport execute: age
smoothSolver:  Solving for age, Initial residual = 0.0108418, Final residual = 0.000994116, No Iterations 14

Time = 84

smoothSolver:  Solving for Ux, Initial residual = 0.0106054, Final residual = 0.000747921, No Iterations 6
smoothSolver:  Solving for Uy, Initial residual = 0.0064383, Final residual = 0.000486543, No Iterations 6
GAMG:  Solving for p, Initial residual = 0.00778763, Final residual = 0.000477498, No Iterations 2
time step continuity errors : sum local = 0.00109704, global = 0.000102272, cumulative = 0.0153844
smoothSolver:  Solving for omega, Initial residual = 0.000726451, Final residual = 5.49334e-05, No Iterations 5
smoothSolver:  Solving for k, Initial residual = 0.00878427, Final residual = 0.000694061, No Iterations 6
ExecutionTime = 1.13 s  ClockTime = 1 s

scalarTransport execute: age
smoothSolver:  Solving for age, Initial residual = 0.0105745, Final residual = 0.00100628, No Iterations 14

Time = 85

smoothSolver:  Solving for Ux, Initial residual = 0.0104504, Final residual = 0.000736878, No Iterations 6
smoothSolver:  Solving for Uy, Initial residual = 0.00629886, Final residual = 0.000474681, No Iterations 6
GAMG:  Solving for p, Initial residual = 0.00770102, Final residual = 0.000467541, No Iterations 2
time step continuity errors : sum local = 0.00106744, global = 0.000102486, cumulative = 0.0154869
smoothSolver:  Solving for omega, Initial residual = 0.000708297, Final residual = 5.32232e-05, No Iterations 5
smoothSolver:  Solving for k, Initial residual = 0.00857061, Final residual = 0.000676486, No Iterations 6
ExecutionTime = 1.14 s  ClockTime = 1 s

scalarTransport execute: age
smoothSolver:  Solving for age, Initial residual = 0.010348, Final residual = 0.00102464, No Iterations 14

Time = 86

smoothSolver:  Solving for Ux, Initial residual = 0.0102857, Final residual = 0.000725071, No Iterations 6
smoothSolver:  Solving for Uy, Initial residual = 0.00614889, Final residual = 0.000461841, No Iterations 6
GAMG:  Solving for p, Initial residual = 0.00761224, Final residual = 0.000463469, No Iterations 2
time step continuity errors : sum local = 0.00105187, global = 0.00011496, cumulative = 0.0156018
smoothSolver:  Solving for omega, Initial residual = 0.000690643, Final residual = 5.1589e-05, No Iterations 5
smoothSolver:  Solving for k, Initial residual = 0.00835932, Final residual = 0.000659112, No Iterations 6
ExecutionTime = 1.16 s  ClockTime = 1 s

scalarTransport execute: age
smoothSolver:  Solving for age, Initial residual = 0.0102857, Final residual = 0.0009069, No Iterations 15

Time = 87

smoothSolver:  Solving for Ux, Initial residual = 0.0100872, Final residual = 0.000710714, No Iterations 6
smoothSolver:  Solving for Uy, Initial residual = 0.00600122, Final residual = 0.000449134, No Iterations 6
GAMG:  Solving for p, Initial residual = 0.00752672, Final residual = 0.000452284, No Iterations 2
time step continuity errors : sum local = 0.00102137, global = 0.000111506, cumulative = 0.0157133
smoothSolver:  Solving for omega, Initial residual = 0.000678353, Final residual = 4.99915e-05, No Iterations 5
smoothSolver:  Solving for k, Initial residual = 0.0081501, Final residual = 0.000641968, No Iterations 6
ExecutionTime = 1.17 s  ClockTime = 1 s

scalarTransport execute: age
smoothSolver:  Solving for age, Initial residual = 0.0102454, Final residual = 0.000908694, No Iterations 15

Time = 88

smoothSolver:  Solving for Ux, Initial residual = 0.0099165, Final residual = 0.000698567, No Iterations 6
smoothSolver:  Solving for Uy, Initial residual = 0.00581596, Final residual = 0.00043333, No Iterations 6
GAMG:  Solving for p, Initial residual = 0.00737622, Final residual = 0.000434097, No Iterations 2
time step continuity errors : sum local = 0.000974771, global = 0.000110663, cumulative = 0.015824
smoothSolver:  Solving for omega, Initial residual = 0.000662008, Final residual = 4.84581e-05, No Iterations 5
smoothSolver:  Solving for k, Initial residual = 0.00794327, Final residual = 0.00062506, No Iterations 6
ExecutionTime = 1.18 s  ClockTime = 1 s

scalarTransport execute: age
smoothSolver:  Solving for age, Initial residual = 0.0102057, Final residual = 0.000902658, No Iterations 15

Time = 89

smoothSolver:  Solving for Ux, Initial residual = 0.00972725, Final residual = 0.000685073, No Iterations 6
smoothSolver:  Solving for Uy, Initial residual = 0.00564527, Final residual = 0.000418912, No Iterations 6
GAMG:  Solving for p, Initial residual = 0.00725375, Final residual = 0.000426262, No Iterations 2
time step continuity errors : sum local = 0.000952419, global = 0.000109959, cumulative = 0.015934
smoothSolver:  Solving for omega, Initial residual = 0.00064252, Final residual = 4.68138e-05, No Iterations 5
smoothSolver:  Solving for k, Initial residual = 0.00773812, Final residual = 0.000608451, No Iterations 6
ExecutionTime = 1.2 s  ClockTime = 1 s

scalarTransport execute: age
smoothSolver:  Solving for age, Initial residual = 0.0101386, Final residual = 0.000901717, No Iterations 15

Time = 90

smoothSolver:  Solving for Ux, Initial residual = 0.0095184, Final residual = 0.000670145, No Iterations 6
smoothSolver:  Solving for Uy, Initial residual = 0.00547154, Final residual = 0.000404215, No Iterations 6
GAMG:  Solving for p, Initial residual = 0.00715163, Final residual = 0.000424378, No Iterations 2
time step continuity errors : sum local = 0.000943863, global = 0.000108946, cumulative = 0.0160429
smoothSolver:  Solving for omega, Initial residual = 0.000624601, Final residual = 4.52632e-05, No Iterations 5
smoothSolver:  Solving for k, Initial residual = 0.00753541, Final residual = 0.000592058, No Iterations 6
ExecutionTime = 1.21 s  ClockTime = 1 s

scalarTransport execute: age
smoothSolver:  Solving for age, Initial residual = 0.00997813, Final residual = 0.000886325, No Iterations 15

Time = 91

smoothSolver:  Solving for Ux, Initial residual = 0.00929884, Final residual = 0.000654425, No Iterations 6
smoothSolver:  Solving for Uy, Initial residual = 0.00529164, Final residual = 0.000388831, No Iterations 6
GAMG:  Solving for p, Initial residual = 0.00704024, Final residual = 0.000423959, No Iterations 2
time step continuity errors : sum local = 0.00093903, global = 0.000108137, cumulative = 0.016151
smoothSolver:  Solving for omega, Initial residual = 0.000610221, Final residual = 4.39121e-05, No Iterations 5
smoothSolver:  Solving for k, Initial residual = 0.00733425, Final residual = 0.000575836, No Iterations 6
ExecutionTime = 1.22 s  ClockTime = 1 s

scalarTransport execute: age
smoothSolver:  Solving for age, Initial residual = 0.00967778, Final residual = 0.0008488, No Iterations 15

Time = 92

smoothSolver:  Solving for Ux, Initial residual = 0.00906924, Final residual = 0.000638164, No Iterations 6
smoothSolver:  Solving for Uy, Initial residual = 0.00511088, Final residual = 0.000373191, No Iterations 6
GAMG:  Solving for p, Initial residual = 0.00691872, Final residual = 0.000422125, No Iterations 2
time step continuity errors : sum local = 0.000930741, global = 0.000107283, cumulative = 0.0162583
smoothSolver:  Solving for omega, Initial residual = 0.000595191, Final residual = 4.25953e-05, No Iterations 5
smoothSolver:  Solving for k, Initial residual = 0.00713502, Final residual = 0.000559807, No Iterations 6
ExecutionTime = 1.24 s  ClockTime = 1 s

scalarTransport execute: age
smoothSolver:  Solving for age, Initial residual = 0.00926823, Final residual = 0.000897801, No Iterations 14

Time = 93

smoothSolver:  Solving for Ux, Initial residual = 0.00883252, Final residual = 0.000621474, No Iterations 6
smoothSolver:  Solving for Uy, Initial residual = 0.0049306, Final residual = 0.000357586, No Iterations 6
GAMG:  Solving for p, Initial residual = 0.00677728, Final residual = 0.000418548, No Iterations 2
time step continuity errors : sum local = 0.000919149, global = 0.000106649, cumulative = 0.016365
smoothSolver:  Solving for omega, Initial residual = 0.000579673, Final residual = 4.13253e-05, No Iterations 5
smoothSolver:  Solving for k, Initial residual = 0.00693749, Final residual = 0.000543977, No Iterations 6
ExecutionTime = 1.25 s  ClockTime = 1 s

scalarTransport execute: age
smoothSolver:  Solving for age, Initial residual = 0.00890431, Final residual = 0.000819907, No Iterations 14

Time = 94

smoothSolver:  Solving for Ux, Initial residual = 0.0085917, Final residual = 0.000604382, No Iterations 6
smoothSolver:  Solving for Uy, Initial residual = 0.00475258, Final residual = 0.000342084, No Iterations 6
GAMG:  Solving for p, Initial residual = 0.00663002, Final residual = 0.00041346, No Iterations 2
time step continuity errors : sum local = 0.000904875, global = 0.000106311, cumulative = 0.0164713
smoothSolver:  Solving for omega, Initial residual = 0.000564746, Final residual = 4.01178e-05, No Iterations 5
smoothSolver:  Solving for k, Initial residual = 0.00674261, Final residual = 0.000528346, No Iterations 6
ExecutionTime = 1.26 s  ClockTime = 1 s

scalarTransport execute: age
smoothSolver:  Solving for age, Initial residual = 0.00855176, Final residual = 0.00075222, No Iterations 14

Time = 95

smoothSolver:  Solving for Ux, Initial residual = 0.00834159, Final residual = 0.000586717, No Iterations 6
smoothSolver:  Solving for Uy, Initial residual = 0.00457739, Final residual = 0.000326752, No Iterations 6
GAMG:  Solving for p, Initial residual = 0.00647941, Final residual = 0.000406295, No Iterations 2
time step continuity errors : sum local = 0.000886686, global = 0.000106152, cumulative = 0.0165774
smoothSolver:  Solving for omega, Initial residual = 0.00055012, Final residual = 3.89596e-05, No Iterations 5
smoothSolver:  Solving for k, Initial residual = 0.00654966, Final residual = 0.000512891, No Iterations 6
ExecutionTime = 1.28 s  ClockTime = 1 s

scalarTransport execute: age
smoothSolver:  Solving for age, Initial residual = 0.00812805, Final residual = 0.000780303, No Iterations 13

Time = 96

smoothSolver:  Solving for Ux, Initial residual = 0.00808329, Final residual = 0.000568584, No Iterations 6
[...]

Time = 480

smoothSolver:  Solving for Ux, Initial residual = 9.59551e-07, Final residual = 8.68932e-08, No Iterations 5
smoothSolver:  Solving for Uy, Initial residual = 6.78821e-07, Final residual = 6.01616e-08, No Iterations 5
GAMG:  Solving for p, Initial residual = 2.68117e-06, Final residual = 1.37548e-07, No Iterations 2
time step continuity errors : sum local = 2.98206e-07, global = 6.99868e-09, cumulative = 0.021423
smoothSolver:  Solving for omega, Initial residual = 1.06411e-07, Final residual = 1.05271e-08, No Iterations 4
smoothSolver:  Solving for k, Initial residual = 2.92649e-07, Final residual = 2.88193e-08, No Iterations 5
ExecutionTime = 6.2 s  ClockTime = 6 s

scalarTransport execute: age
smoothSolver:  Solving for age, Initial residual = 0.000344269, Final residual = 3.16703e-05, No Iterations 15

Time = 481

smoothSolver:  Solving for Ux, Initial residual = 9.1974e-07, Final residual = 8.32264e-08, No Iterations 5
smoothSolver:  Solving for Uy, Initial residual = 6.51706e-07, Final residual = 5.77377e-08, No Iterations 5
GAMG:  Solving for p, Initial residual = 2.58078e-06, Final residual = 1.32565e-07, No Iterations 2
time step continuity errors : sum local = 2.87403e-07, global = 6.80564e-09, cumulative = 0.021423
smoothSolver:  Solving for omega, Initial residual = 1.02332e-07, Final residual = 1.0152e-08, No Iterations 4
smoothSolver:  Solving for k, Initial residual = 2.85965e-07, Final residual = 2.83019e-08, No Iterations 5
ExecutionTime = 6.21 s  ClockTime = 6 s

scalarTransport execute: age
smoothSolver:  Solving for age, Initial residual = 0.000343424, Final residual = 3.15929e-05, No Iterations 15

Time = 482

smoothSolver:  Solving for Ux, Initial residual = 8.80927e-07, Final residual = 7.96394e-08, No Iterations 5
smoothSolver:  Solving for Uy, Initial residual = 6.25393e-07, Final residual = 5.53734e-08, No Iterations 5
GAMG:  Solving for p, Initial residual = 2.47973e-06, Final residual = 1.25936e-07, No Iterations 2
time step continuity errors : sum local = 2.73031e-07, global = 4.9956e-09, cumulative = 0.021423
smoothSolver:  Solving for omega, Initial residual = 9.89881e-08, Final residual = 9.79286e-09, No Iterations 4
smoothSolver:  Solving for k, Initial residual = 2.79652e-07, Final residual = 2.78098e-08, No Iterations 5
ExecutionTime = 6.23 s  ClockTime = 6 s

scalarTransport execute: age
smoothSolver:  Solving for age, Initial residual = 0.000342583, Final residual = 3.15158e-05, No Iterations 15

Time = 483

smoothSolver:  Solving for Ux, Initial residual = 8.41853e-07, Final residual = 7.60042e-08, No Iterations 5
smoothSolver:  Solving for Uy, Initial residual = 5.9942e-07, Final residual = 5.30227e-08, No Iterations 5
GAMG:  Solving for p, Initial residual = 2.38274e-06, Final residual = 1.2183e-07, No Iterations 2
time step continuity errors : sum local = 2.64129e-07, global = 5.65749e-09, cumulative = 0.021423
smoothSolver:  Solving for omega, Initial residual = 9.45487e-08, Final residual = 9.43725e-09, No Iterations 4
smoothSolver:  Solving for k, Initial residual = 2.73313e-07, Final residual = 1.75263e-08, No Iterations 6
ExecutionTime = 6.24 s  ClockTime = 6 s

scalarTransport execute: age
smoothSolver:  Solving for age, Initial residual = 0.000341748, Final residual = 3.14393e-05, No Iterations 15

Time = 484

smoothSolver:  Solving for Ux, Initial residual = 8.03934e-07, Final residual = 7.25107e-08, No Iterations 5
smoothSolver:  Solving for Uy, Initial residual = 5.76898e-07, Final residual = 5.11104e-08, No Iterations 5
GAMG:  Solving for p, Initial residual = 2.29467e-06, Final residual = 1.18144e-07, No Iterations 2
time step continuity errors : sum local = 2.56138e-07, global = 6.01187e-09, cumulative = 0.021423
smoothSolver:  Solving for omega, Initial residual = 9.15354e-08, Final residual = 9.10304e-09, No Iterations 4
smoothSolver:  Solving for k, Initial residual = 2.67043e-07, Final residual = 1.72255e-08, No Iterations 6
ExecutionTime = 6.25 s  ClockTime = 6 s

scalarTransport execute: age
smoothSolver:  Solving for age, Initial residual = 0.000340917, Final residual = 3.13633e-05, No Iterations 15

Time = 485

smoothSolver:  Solving for Ux, Initial residual = 7.67847e-07, Final residual = 6.91621e-08, No Iterations 5
smoothSolver:  Solving for Uy, Initial residual = 5.53251e-07, Final residual = 4.89952e-08, No Iterations 5
GAMG:  Solving for p, Initial residual = 2.20504e-06, Final residual = 1.13819e-07, No Iterations 2
time step continuity errors : sum local = 2.46763e-07, global = 5.64926e-09, cumulative = 0.021423
smoothSolver:  Solving for omega, Initial residual = 8.83327e-08, Final residual = 8.77743e-09, No Iterations 4
smoothSolver:  Solving for k, Initial residual = 2.61015e-07, Final residual = 1.6943e-08, No Iterations 6
ExecutionTime = 6.26 s  ClockTime = 6 s

scalarTransport execute: age
smoothSolver:  Solving for age, Initial residual = 0.00034009, Final residual = 3.12877e-05, No Iterations 15

Time = 486

smoothSolver:  Solving for Ux, Initial residual = 7.33051e-07, Final residual = 6.59191e-08, No Iterations 5
smoothSolver:  Solving for Uy, Initial residual = 5.29831e-07, Final residual = 4.68822e-08, No Iterations 5
GAMG:  Solving for p, Initial residual = 2.11547e-06, Final residual = 1.09109e-07, No Iterations 2
time step continuity errors : sum local = 2.36551e-07, global = 6.14818e-09, cumulative = 0.021423
smoothSolver:  Solving for omega, Initial residual = 8.46737e-08, Final residual = 8.45592e-09, No Iterations 4
smoothSolver:  Solving for k, Initial residual = 2.55185e-07, Final residual = 1.6676e-08, No Iterations 6
ExecutionTime = 6.28 s  ClockTime = 6 s

scalarTransport execute: age
smoothSolver:  Solving for age, Initial residual = 0.000339266, Final residual = 3.12125e-05, No Iterations 15

Time = 487

smoothSolver:  Solving for Ux, Initial residual = 6.98757e-07, Final residual = 6.27442e-08, No Iterations 5
smoothSolver:  Solving for Uy, Initial residual = 5.07724e-07, Final residual = 4.49011e-08, No Iterations 5
GAMG:  Solving for p, Initial residual = 2.02779e-06, Final residual = 1.03386e-07, No Iterations 2
time step continuity errors : sum local = 2.24144e-07, global = 4.38944e-09, cumulative = 0.021423
smoothSolver:  Solving for omega, Initial residual = 8.21807e-08, Final residual = 8.14724e-09, No Iterations 4
smoothSolver:  Solving for k, Initial residual = 2.4987e-07, Final residual = 1.64249e-08, No Iterations 6
ExecutionTime = 6.29 s  ClockTime = 6 s

scalarTransport execute: age
smoothSolver:  Solving for age, Initial residual = 0.000338445, Final residual = 3.11376e-05, No Iterations 15

Time = 488

smoothSolver:  Solving for Ux, Initial residual = 6.649e-07, Final residual = 5.95559e-08, No Iterations 5
smoothSolver:  Solving for Uy, Initial residual = 4.85444e-07, Final residual = 4.28762e-08, No Iterations 5
GAMG:  Solving for p, Initial residual = 1.94521e-06, Final residual = 9.99181e-08, No Iterations 2
time step continuity errors : sum local = 2.16625e-07, global = 4.7588e-09, cumulative = 0.021423
smoothSolver:  Solving for omega, Initial residual = 7.81334e-08, Final residual = 7.83997e-09, No Iterations 4
smoothSolver:  Solving for k, Initial residual = 2.44602e-07, Final residual = 1.61818e-08, No Iterations 6
ExecutionTime = 6.3 s  ClockTime = 6 s

scalarTransport execute: age
smoothSolver:  Solving for age, Initial residual = 0.000337628, Final residual = 3.10632e-05, No Iterations 15

Time = 489

smoothSolver:  Solving for Ux, Initial residual = 6.32577e-07, Final residual = 5.65802e-08, No Iterations 5
smoothSolver:  Solving for Uy, Initial residual = 4.65719e-07, Final residual = 4.11899e-08, No Iterations 5
GAMG:  Solving for p, Initial residual = 1.86833e-06, Final residual = 9.66906e-08, No Iterations 2
time step continuity errors : sum local = 2.09628e-07, global = 4.81295e-09, cumulative = 0.021423
smoothSolver:  Solving for omega, Initial residual = 7.53604e-08, Final residual = 7.53764e-09, No Iterations 4
smoothSolver:  Solving for k, Initial residual = 2.39865e-07, Final residual = 1.59498e-08, No Iterations 6
ExecutionTime = 6.31 s  ClockTime = 6 s

scalarTransport execute: age
smoothSolver:  Solving for age, Initial residual = 0.000336815, Final residual = 3.09893e-05, No Iterations 15

Time = 490

smoothSolver:  Solving for Ux, Initial residual = 6.01682e-07, Final residual = 5.37187e-08, No Iterations 5
smoothSolver:  Solving for Uy, Initial residual = 4.45411e-07, Final residual = 3.93627e-08, No Iterations 5
GAMG:  Solving for p, Initial residual = 1.79082e-06, Final residual = 9.29404e-08, No Iterations 2
time step continuity errors : sum local = 2.01497e-07, global = 4.83506e-09, cumulative = 0.021423
smoothSolver:  Solving for omega, Initial residual = 7.23162e-08, Final residual = 7.24603e-09, No Iterations 4
smoothSolver:  Solving for k, Initial residual = 2.35333e-07, Final residual = 1.57282e-08, No Iterations 6
ExecutionTime = 6.33 s  ClockTime = 6 s

scalarTransport execute: age
smoothSolver:  Solving for age, Initial residual = 0.000336004, Final residual = 3.09157e-05, No Iterations 15

Time = 491

smoothSolver:  Solving for Ux, Initial residual = 5.71828e-07, Final residual = 5.09444e-08, No Iterations 5
smoothSolver:  Solving for Uy, Initial residual = 4.25485e-07, Final residual = 3.75634e-08, No Iterations 5
GAMG:  Solving for p, Initial residual = 1.71326e-06, Final residual = 8.89093e-08, No Iterations 2
time step continuity errors : sum local = 1.92758e-07, global = 4.90526e-09, cumulative = 0.021423
smoothSolver:  Solving for omega, Initial residual = 6.93946e-08, Final residual = 6.96142e-09, No Iterations 4
smoothSolver:  Solving for k, Initial residual = 2.31042e-07, Final residual = 1.55135e-08, No Iterations 6
ExecutionTime = 6.34 s  ClockTime = 6 s

scalarTransport execute: age
smoothSolver:  Solving for age, Initial residual = 0.000335195, Final residual = 3.08425e-05, No Iterations 15

Time = 492

smoothSolver:  Solving for Ux, Initial residual = 5.42648e-07, Final residual = 4.82486e-08, No Iterations 5
smoothSolver:  Solving for Uy, Initial residual = 4.06384e-07, Final residual = 3.58455e-08, No Iterations 5
GAMG:  Solving for p, Initial residual = 1.63844e-06, Final residual = 8.48929e-08, No Iterations 2
time step continuity errors : sum local = 1.8405e-07, global = 4.33756e-09, cumulative = 0.0214231
smoothSolver:  Solving for omega, Initial residual = 6.67542e-08, Final residual = 6.6849e-09, No Iterations 4
smoothSolver:  Solving for k, Initial residual = 2.26992e-07, Final residual = 1.5306e-08, No Iterations 6
ExecutionTime = 6.35 s  ClockTime = 6 s

scalarTransport execute: age
smoothSolver:  Solving for age, Initial residual = 0.000334389, Final residual = 3.07697e-05, No Iterations 15

Time = 493

smoothSolver:  Solving for Ux, Initial residual = 5.1447e-07, Final residual = 4.56307e-08, No Iterations 5
smoothSolver:  Solving for Uy, Initial residual = 3.87832e-07, Final residual = 3.41797e-08, No Iterations 5
GAMG:  Solving for p, Initial residual = 1.56749e-06, Final residual = 8.11746e-08, No Iterations 2
time step continuity errors : sum local = 1.75989e-07, global = 4.4131e-09, cumulative = 0.0214231
smoothSolver:  Solving for omega, Initial residual = 6.36957e-08, Final residual = 6.41483e-09, No Iterations 4
smoothSolver:  Solving for k, Initial residual = 2.23052e-07, Final residual = 1.51046e-08, No Iterations 6
ExecutionTime = 6.37 s  ClockTime = 6 s

scalarTransport execute: age
smoothSolver:  Solving for age, Initial residual = 0.000333587, Final residual = 3.06973e-05, No Iterations 15

Time = 494

smoothSolver:  Solving for Ux, Initial residual = 4.8694e-07, Final residual = 4.30881e-08, No Iterations 5
smoothSolver:  Solving for Uy, Initial residual = 3.70097e-07, Final residual = 3.25971e-08, No Iterations 5
GAMG:  Solving for p, Initial residual = 1.49885e-06, Final residual = 7.7738e-08, No Iterations 2
time step continuity errors : sum local = 1.68538e-07, global = 4.40867e-09, cumulative = 0.0214231
smoothSolver:  Solving for omega, Initial residual = 6.11427e-08, Final residual = 6.15311e-09, No Iterations 4
smoothSolver:  Solving for k, Initial residual = 2.19344e-07, Final residual = 1.49076e-08, No Iterations 6
ExecutionTime = 6.38 s  ClockTime = 6 s

scalarTransport execute: age
smoothSolver:  Solving for age, Initial residual = 0.000332789, Final residual = 3.06252e-05, No Iterations 15

Time = 495

smoothSolver:  Solving for Ux, Initial residual = 4.60376e-07, Final residual = 4.06316e-08, No Iterations 5
smoothSolver:  Solving for Uy, Initial residual = 3.52717e-07, Final residual = 3.1036e-08, No Iterations 5
GAMG:  Solving for p, Initial residual = 1.43288e-06, Final residual = 7.44132e-08, No Iterations 2
time step continuity errors : sum local = 1.6133e-07, global = 4.34658e-09, cumulative = 0.0214231
smoothSolver:  Solving for omega, Initial residual = 5.85342e-08, Final residual = 9.91828e-09, No Iterations 3
smoothSolver:  Solving for k, Initial residual = 2.15906e-07, Final residual = 1.47207e-08, No Iterations 6
ExecutionTime = 6.39 s  ClockTime = 6 s

scalarTransport execute: age
smoothSolver:  Solving for age, Initial residual = 0.000331995, Final residual = 3.05534e-05, No Iterations 15

Time = 496

smoothSolver:  Solving for Ux, Initial residual = 4.3427e-07, Final residual = 3.82095e-08, No Iterations 5
smoothSolver:  Solving for Uy, Initial residual = 3.35857e-07, Final residual = 2.95292e-08, No Iterations 5
GAMG:  Solving for p, Initial residual = 1.36916e-06, Final residual = 7.03578e-08, No Iterations 2
time step continuity errors : sum local = 1.52538e-07, global = 2.87518e-09, cumulative = 0.0214231
smoothSolver:  Solving for omega, Initial residual = 5.74371e-08, Final residual = 9.72178e-09, No Iterations 3
smoothSolver:  Solving for k, Initial residual = 2.12703e-07, Final residual = 1.45416e-08, No Iterations 6
ExecutionTime = 6.41 s  ClockTime = 6 s

scalarTransport execute: age
smoothSolver:  Solving for age, Initial residual = 0.000331204, Final residual = 3.04819e-05, No Iterations 15

Time = 497

smoothSolver:  Solving for Ux, Initial residual = 4.08572e-07, Final residual = 3.58149e-08, No Iterations 5
smoothSolver:  Solving for Uy, Initial residual = 3.1867e-07, Final residual = 2.79804e-08, No Iterations 5
GAMG:  Solving for p, Initial residual = 1.30619e-06, Final residual = 6.77088e-08, No Iterations 2
time step continuity errors : sum local = 1.46795e-07, global = 2.66751e-09, cumulative = 0.0214231
smoothSolver:  Solving for omega, Initial residual = 5.52482e-08, Final residual = 9.47045e-09, No Iterations 3
smoothSolver:  Solving for k, Initial residual = 2.09367e-07, Final residual = 1.43605e-08, No Iterations 6
ExecutionTime = 6.42 s  ClockTime = 6 s

scalarTransport execute: age
smoothSolver:  Solving for age, Initial residual = 0.000330417, Final residual = 3.04107e-05, No Iterations 15

Time = 498

smoothSolver:  Solving for Ux, Initial residual = 3.84319e-07, Final residual = 3.35897e-08, No Iterations 5
smoothSolver:  Solving for Uy, Initial residual = 3.03516e-07, Final residual = 2.66653e-08, No Iterations 5
GAMG:  Solving for p, Initial residual = 1.2483e-06, Final residual = 6.51068e-08, No Iterations 2
time step continuity errors : sum local = 1.41154e-07, global = 2.20145e-09, cumulative = 0.0214231
smoothSolver:  Solving for omega, Initial residual = 5.36e-08, Final residual = 9.18907e-09, No Iterations 3
smoothSolver:  Solving for k, Initial residual = 2.06196e-07, Final residual = 1.41805e-08, No Iterations 6
ExecutionTime = 6.43 s  ClockTime = 6 s

scalarTransport execute: age
smoothSolver:  Solving for age, Initial residual = 0.000329634, Final residual = 3.03398e-05, No Iterations 15

Time = 499

smoothSolver:  Solving for Ux, Initial residual = 3.61283e-07, Final residual = 3.14663e-08, No Iterations 5
smoothSolver:  Solving for Uy, Initial residual = 2.87975e-07, Final residual = 2.52708e-08, No Iterations 5
GAMG:  Solving for p, Initial residual = 1.19014e-06, Final residual = 6.2206e-08, No Iterations 2
time step continuity errors : sum local = 1.34865e-07, global = 1.71143e-09, cumulative = 0.0214231
smoothSolver:  Solving for omega, Initial residual = 5.16848e-08, Final residual = 8.89349e-09, No Iterations 3
smoothSolver:  Solving for k, Initial residual = 2.03088e-07, Final residual = 1.40016e-08, No Iterations 6
ExecutionTime = 6.44 s  ClockTime = 6 s

scalarTransport execute: age
smoothSolver:  Solving for age, Initial residual = 0.000328854, Final residual = 3.02693e-05, No Iterations 15

Time = 500

smoothSolver:  Solving for Ux, Initial residual = 3.39256e-07, Final residual = 2.94308e-08, No Iterations 5
smoothSolver:  Solving for Uy, Initial residual = 2.72806e-07, Final residual = 2.39044e-08, No Iterations 5
GAMG:  Solving for p, Initial residual = 1.13274e-06, Final residual = 5.92208e-08, No Iterations 2
time step continuity errors : sum local = 1.28393e-07, global = 1.25376e-09, cumulative = 0.0214231
smoothSolver:  Solving for omega, Initial residual = 4.97314e-08, Final residual = 8.58519e-09, No Iterations 3
smoothSolver:  Solving for k, Initial residual = 2.00068e-07, Final residual = 1.38238e-08, No Iterations 6
ExecutionTime = 6.46 s  ClockTime = 6 s

scalarTransport execute: age
smoothSolver:  Solving for age, Initial residual = 0.000328078, Final residual = 3.01991e-05, No Iterations 15

Time = 501

smoothSolver:  Solving for Ux, Initial residual = 3.18105e-07, Final residual = 2.74981e-08, No Iterations 5
smoothSolver:  Solving for Uy, Initial residual = 2.5828e-07, Final residual = 2.26022e-08, No Iterations 5
GAMG:  Solving for p, Initial residual = 1.07854e-06, Final residual = 5.63536e-08, No Iterations 2
time step continuity errors : sum local = 1.22176e-07, global = 7.78476e-10, cumulative = 0.0214231
smoothSolver:  Solving for omega, Initial residual = 4.78103e-08, Final residual = 8.27055e-09, No Iterations 3
smoothSolver:  Solving for k, Initial residual = 1.97178e-07, Final residual = 1.36474e-08, No Iterations 6
ExecutionTime = 6.47 s  ClockTime = 6 s

scalarTransport execute: age
smoothSolver:  Solving for age, Initial residual = 0.000327306, Final residual = 3.01291e-05, No Iterations 15

Time = 502

smoothSolver:  Solving for Ux, Initial residual = 2.98161e-07, Final residual = 2.56798e-08, No Iterations 5
smoothSolver:  Solving for Uy, Initial residual = 2.44354e-07, Final residual = 2.13592e-08, No Iterations 5
GAMG:  Solving for p, Initial residual = 1.02725e-06, Final residual = 5.36712e-08, No Iterations 2
time step continuity errors : sum local = 1.16361e-07, global = 3.24961e-10, cumulative = 0.0214231
smoothSolver:  Solving for omega, Initial residual = 4.58533e-08, Final residual = 7.95282e-09, No Iterations 3
smoothSolver:  Solving for k, Initial residual = 1.94431e-07, Final residual = 1.34725e-08, No Iterations 6
ExecutionTime = 6.48 s  ClockTime = 6 s

scalarTransport execute: age
smoothSolver:  Solving for age, Initial residual = 0.000326537, Final residual = 3.00594e-05, No Iterations 15

Time = 503

smoothSolver:  Solving for Ux, Initial residual = 2.79327e-07, Final residual = 2.3964e-08, No Iterations 5
smoothSolver:  Solving for Uy, Initial residual = 2.30897e-07, Final residual = 2.01629e-08, No Iterations 5
GAMG:  Solving for p, Initial residual = 9.78179e-07, Final residual = 5.11475e-08, No Iterations 2
time step continuity errors : sum local = 1.10889e-07, global = -1.27158e-10, cumulative = 0.0214231
smoothSolver:  Solving for omega, Initial residual = 4.39522e-08, Final residual = 7.63523e-09, No Iterations 3
smoothSolver:  Solving for k, Initial residual = 1.91786e-07, Final residual = 1.32986e-08, No Iterations 6
ExecutionTime = 6.49 s  ClockTime = 6 s


SIMPLE solution converged in 503 iterations

scalarTransport execute: age
smoothSolver:  Solving for age, Initial residual = 0.000325772, Final residual = 2.99899e-05, No Iterations 15

End

