/*---------------------------------------------------------------------------*\
| =========                 |                                                 |
| \\      /  F ield         | OpenFOAM: The Open Source CFD Toolbox           |
|  \\    /   O peration     | Version:  v2012                                 |
|   \\  /    A nd           | Website:  www.openfoam.com                      |
|    \\/     M anipulation  |                                                 |
\*---------------------------------------------------------------------------*/
Build  : _7bdb509494-20201222 OPENFOAM=2012
Arch   : "LSB;label=32;scalar=64"
Exec   : simpleFoam
Date   : Feb 24 2023
Time   : 01:59:32
Host   : johnsDesktop
PID    : 21672
I/O    : uncollated
Case   : /home/john/of_runs/cases/dbl_0_58_128_8
nProcs : 1
trapFpe: Floating point exception trapping enabled (FOAM_SIGFPE).
fileModificationChecking : Monitoring run-time modified files using timeStampMaster (fileModificationSkew 5, maxFileModificationPolls 20)
allowSystemOperations : Allowing user-supplied system call operations

// * * * * * * * * * * * * * * * * * * * * * * * * * * * * * * * * * * * * * //
Create time

Create mesh for time = 0


SIMPLE: convergence criteria
    field p	 tolerance 1e-06
    field U	 tolerance 1e-06
    field "(k|epsilon|omega|f|v2|age)"	 tolerance 1e-05

Reading field p

Reading field U

Reading/calculating face flux field phi

Selecting incompressible transport model Newtonian
Selecting turbulence model type RAS
Selecting RAS turbulence model kOmegaSST
Selecting patchDistMethod meshWave
RAS
{
    RASModel        kOmegaSST;
    turbulence      on;
    printCoeffs     on;
    alphaK1         0.85;
    alphaK2         1;
    alphaOmega1     0.5;
    alphaOmega2     0.856;
    gamma1          0.555556;
    gamma2          0.44;
    beta1           0.075;
    beta2           0.0828;
    betaStar        0.09;
    a1              0.31;
    b1              1;
    c1              10;
    F3              false;
    decayControl    false;
    kInf            0;
    omegaInf        0;
}

No MRF models present

No finite volume options present

Starting time loop

Selecting finite volume options type scalarSemiImplicitSource
    Source: unitySource
    - selecting all cells
    - selected 6502 cell(s) with volume 0.03142
Time = 1

smoothSolver:  Solving for Ux, Initial residual = 0, Final residual = 0, No Iterations 0
smoothSolver:  Solving for Uy, Initial residual = 1, Final residual = 0.0717447, No Iterations 1
GAMG:  Solving for p, Initial residual = 1, Final residual = 0.0583106, No Iterations 7
time step continuity errors : sum local = 0.00371169, global = -0.000390395, cumulative = -0.000390395
smoothSolver:  Solving for omega, Initial residual = 0.0359393, Final residual = 0.0034575, No Iterations 2
smoothSolver:  Solving for k, Initial residual = 1, Final residual = 0.0602857, No Iterations 2
ExecutionTime = 0.05 s  ClockTime = 0 s

scalarTransport execute: age
smoothSolver:  Solving for age, Initial residual = 1, Final residual = 0.0990296, No Iterations 6

Time = 2

smoothSolver:  Solving for Ux, Initial residual = 0.439802, Final residual = 0.0412133, No Iterations 5
smoothSolver:  Solving for Uy, Initial residual = 0.250589, Final residual = 0.024839, No Iterations 4
GAMG:  Solving for p, Initial residual = 0.0624835, Final residual = 0.00235885, No Iterations 4
time step continuity errors : sum local = 0.0174867, global = 0.00137293, cumulative = 0.000982539
smoothSolver:  Solving for omega, Initial residual = 0.0451378, Final residual = 0.00380303, No Iterations 1
smoothSolver:  Solving for k, Initial residual = 0.263745, Final residual = 0.0193251, No Iterations 3
ExecutionTime = 0.07 s  ClockTime = 0 s

scalarTransport execute: age
smoothSolver:  Solving for age, Initial residual = 0.567408, Final residual = 0.0489738, No Iterations 8

Time = 3

smoothSolver:  Solving for Ux, Initial residual = 0.171536, Final residual = 0.0111338, No Iterations 5
smoothSolver:  Solving for Uy, Initial residual = 0.102784, Final residual = 0.00880484, No Iterations 4
GAMG:  Solving for p, Initial residual = 0.0502661, Final residual = 0.00341123, No Iterations 3
time step continuity errors : sum local = 0.0149277, global = 0.0010961, cumulative = 0.00207863
smoothSolver:  Solving for omega, Initial residual = 0.00792016, Final residual = 0.000666829, No Iterations 2
smoothSolver:  Solving for k, Initial residual = 0.14474, Final residual = 0.00805256, No Iterations 4
ExecutionTime = 0.08 s  ClockTime = 0 s

scalarTransport execute: age
smoothSolver:  Solving for age, Initial residual = 0.296641, Final residual = 0.0258343, No Iterations 9

Time = 4

smoothSolver:  Solving for Ux, Initial residual = 0.0954499, Final residual = 0.00911191, No Iterations 4
smoothSolver:  Solving for Uy, Initial residual = 0.0630229, Final residual = 0.00493785, No Iterations 4
GAMG:  Solving for p, Initial residual = 0.0582022, Final residual = 0.00476149, No Iterations 2
time step continuity errors : sum local = 0.0157669, global = 0.00222378, cumulative = 0.00430242
smoothSolver:  Solving for omega, Initial residual = 0.00407543, Final residual = 0.000227179, No Iterations 3
smoothSolver:  Solving for k, Initial residual = 0.0966079, Final residual = 0.00686893, No Iterations 4
ExecutionTime = 0.09 s  ClockTime = 0 s

scalarTransport execute: age
smoothSolver:  Solving for age, Initial residual = 0.160559, Final residual = 0.015661, No Iterations 9

Time = 5

smoothSolver:  Solving for Ux, Initial residual = 0.0746629, Final residual = 0.00745153, No Iterations 4
smoothSolver:  Solving for Uy, Initial residual = 0.051124, Final residual = 0.00405785, No Iterations 4
GAMG:  Solving for p, Initial residual = 0.0516217, Final residual = 0.00487413, No Iterations 2
time step continuity errors : sum local = 0.0154603, global = 0.00168559, cumulative = 0.00598801
smoothSolver:  Solving for omega, Initial residual = 0.00201376, Final residual = 0.000136123, No Iterations 3
smoothSolver:  Solving for k, Initial residual = 0.0725239, Final residual = 0.00590176, No Iterations 4
ExecutionTime = 0.1 s  ClockTime = 0 s

scalarTransport execute: age
smoothSolver:  Solving for age, Initial residual = 0.112352, Final residual = 0.010161, No Iterations 10

Time = 6

smoothSolver:  Solving for Ux, Initial residual = 0.06422, Final residual = 0.00403772, No Iterations 5
smoothSolver:  Solving for Uy, Initial residual = 0.0449482, Final residual = 0.00379225, No Iterations 4
GAMG:  Solving for p, Initial residual = 0.0469724, Final residual = 0.00361219, No Iterations 2
time step continuity errors : sum local = 0.0111699, global = 0.00122085, cumulative = 0.00720887
smoothSolver:  Solving for omega, Initial residual = 0.00121781, Final residual = 9.44843e-05, No Iterations 3
smoothSolver:  Solving for k, Initial residual = 0.0582594, Final residual = 0.00518207, No Iterations 4
ExecutionTime = 0.11 s  ClockTime = 0 s

scalarTransport execute: age
smoothSolver:  Solving for age, Initial residual = 0.0855397, Final residual = 0.00805891, No Iterations 10

Time = 7

smoothSolver:  Solving for Ux, Initial residual = 0.0576272, Final residual = 0.00368817, No Iterations 5
smoothSolver:  Solving for Uy, Initial residual = 0.0413379, Final residual = 0.00373996, No Iterations 4
GAMG:  Solving for p, Initial residual = 0.0442695, Final residual = 0.00340233, No Iterations 2
time step continuity errors : sum local = 0.0105745, global = 0.00106216, cumulative = 0.00827103
smoothSolver:  Solving for omega, Initial residual = 0.000829236, Final residual = 6.59158e-05, No Iterations 3
smoothSolver:  Solving for k, Initial residual = 0.0487641, Final residual = 0.00458155, No Iterations 4
ExecutionTime = 0.12 s  ClockTime = 0 s

scalarTransport execute: age
smoothSolver:  Solving for age, Initial residual = 0.0701871, Final residual = 0.00690553, No Iterations 10

Time = 8

smoothSolver:  Solving for Ux, Initial residual = 0.0283349, Final residual = 0.00280617, No Iterations 4
smoothSolver:  Solving for Uy, Initial residual = 0.0406057, Final residual = 0.00362186, No Iterations 4
GAMG:  Solving for p, Initial residual = 0.042256, Final residual = 0.00293723, No Iterations 2
time step continuity errors : sum local = 0.00923067, global = 0.000915525, cumulative = 0.00918655
smoothSolver:  Solving for omega, Initial residual = 0.000564991, Final residual = 4.85068e-05, No Iterations 3
smoothSolver:  Solving for k, Initial residual = 0.0421499, Final residual = 0.00410355, No Iterations 4
ExecutionTime = 0.14 s  ClockTime = 0 s

scalarTransport execute: age
smoothSolver:  Solving for age, Initial residual = 0.0621098, Final residual = 0.0054822, No Iterations 11

Time = 9

smoothSolver:  Solving for Ux, Initial residual = 0.0500405, Final residual = 0.00321968, No Iterations 5
smoothSolver:  Solving for Uy, Initial residual = 0.0366774, Final residual = 0.00345016, No Iterations 4
GAMG:  Solving for p, Initial residual = 0.0423491, Final residual = 0.00288165, No Iterations 2
time step continuity errors : sum local = 0.0091189, global = 0.000805156, cumulative = 0.00999171
smoothSolver:  Solving for omega, Initial residual = 0.000469441, Final residual = 3.82465e-05, No Iterations 3
smoothSolver:  Solving for k, Initial residual = 0.0372712, Final residual = 0.00370181, No Iterations 4
ExecutionTime = 0.15 s  ClockTime = 0 s

scalarTransport execute: age
smoothSolver:  Solving for age, Initial residual = 0.0586945, Final residual = 0.00514982, No Iterations 11

Time = 10

smoothSolver:  Solving for Ux, Initial residual = 0.0465805, Final residual = 0.00291362, No Iterations 5
smoothSolver:  Solving for Uy, Initial residual = 0.0354279, Final residual = 0.00329149, No Iterations 4
GAMG:  Solving for p, Initial residual = 0.0432982, Final residual = 0.00290951, No Iterations 2
time step continuity errors : sum local = 0.00925155, global = 0.000757079, cumulative = 0.0107488
smoothSolver:  Solving for omega, Initial residual = 0.000394304, Final residual = 3.06881e-05, No Iterations 3
smoothSolver:  Solving for k, Initial residual = 0.0336155, Final residual = 0.00196762, No Iterations 5
ExecutionTime = 0.16 s  ClockTime = 0 s

scalarTransport execute: age
smoothSolver:  Solving for age, Initial residual = 0.0562522, Final residual = 0.00481477, No Iterations 11

Time = 11

smoothSolver:  Solving for Ux, Initial residual = 0.0371136, Final residual = 0.00362186, No Iterations 4
smoothSolver:  Solving for Uy, Initial residual = 0.0346696, Final residual = 0.00309928, No Iterations 4
GAMG:  Solving for p, Initial residual = 0.0435543, Final residual = 0.00286079, No Iterations 2
time step continuity errors : sum local = 0.00913557, global = 0.000776276, cumulative = 0.0115251
smoothSolver:  Solving for omega, Initial residual = 0.000364831, Final residual = 2.49864e-05, No Iterations 3
smoothSolver:  Solving for k, Initial residual = 0.0307552, Final residual = 0.00306865, No Iterations 4
ExecutionTime = 0.17 s  ClockTime = 0 s

scalarTransport execute: age
smoothSolver:  Solving for age, Initial residual = 0.0542321, Final residual = 0.00516837, No Iterations 10

Time = 12

smoothSolver:  Solving for Ux, Initial residual = 0.0431562, Final residual = 0.00413419, No Iterations 4
smoothSolver:  Solving for Uy, Initial residual = 0.0325308, Final residual = 0.00287355, No Iterations 4
GAMG:  Solving for p, Initial residual = 0.0437496, Final residual = 0.00308806, No Iterations 2
time step continuity errors : sum local = 0.00989817, global = 0.000939973, cumulative = 0.012465
smoothSolver:  Solving for omega, Initial residual = 0.000342756, Final residual = 2.08645e-05, No Iterations 3
smoothSolver:  Solving for k, Initial residual = 0.028381, Final residual = 0.00281262, No Iterations 4
ExecutionTime = 0.18 s  ClockTime = 0 s

scalarTransport execute: age
smoothSolver:  Solving for age, Initial residual = 0.0517176, Final residual = 0.00480784, No Iterations 10

Time = 13

smoothSolver:  Solving for Ux, Initial residual = 0.0409434, Final residual = 0.00381027, No Iterations 4
smoothSolver:  Solving for Uy, Initial residual = 0.0303359, Final residual = 0.00264613, No Iterations 4
GAMG:  Solving for p, Initial residual = 0.0432191, Final residual = 0.00319117, No Iterations 2
time step continuity errors : sum local = 0.0103018, global = 0.00120525, cumulative = 0.0136703
smoothSolver:  Solving for omega, Initial residual = 0.000331343, Final residual = 1.77277e-05, No Iterations 3
smoothSolver:  Solving for k, Initial residual = 0.0263671, Final residual = 0.00258169, No Iterations 4
ExecutionTime = 0.19 s  ClockTime = 0 s

scalarTransport execute: age
smoothSolver:  Solving for age, Initial residual = 0.0483837, Final residual = 0.00458715, No Iterations 10

Time = 14

smoothSolver:  Solving for Ux, Initial residual = 0.0385373, Final residual = 0.00349803, No Iterations 4
smoothSolver:  Solving for Uy, Initial residual = 0.0278893, Final residual = 0.00242008, No Iterations 4
GAMG:  Solving for p, Initial residual = 0.041781, Final residual = 0.0030842, No Iterations 2
time step continuity errors : sum local = 0.0100126, global = 0.00130473, cumulative = 0.014975
smoothSolver:  Solving for omega, Initial residual = 0.00033824, Final residual = 3.33069e-05, No Iterations 2
smoothSolver:  Solving for k, Initial residual = 0.0246452, Final residual = 0.00237797, No Iterations 4
ExecutionTime = 0.2 s  ClockTime = 0 s

scalarTransport execute: age
smoothSolver:  Solving for age, Initial residual = 0.044862, Final residual = 0.00437684, No Iterations 10

Time = 15

smoothSolver:  Solving for Ux, Initial residual = 0.0357269, Final residual = 0.00317441, No Iterations 4
smoothSolver:  Solving for Uy, Initial residual = 0.025516, Final residual = 0.0022108, No Iterations 4
GAMG:  Solving for p, Initial residual = 0.0402141, Final residual = 0.00305174, No Iterations 2
time step continuity errors : sum local = 0.00984648, global = 0.00132263, cumulative = 0.0162977
smoothSolver:  Solving for omega, Initial residual = 0.000314411, Final residual = 3.11424e-05, No Iterations 2
smoothSolver:  Solving for k, Initial residual = 0.0230569, Final residual = 0.002187, No Iterations 4
ExecutionTime = 0.22 s  ClockTime = 0 s

scalarTransport execute: age
smoothSolver:  Solving for age, Initial residual = 0.0402138, Final residual = 0.00359758, No Iterations 11

Time = 16

smoothSolver:  Solving for Ux, Initial residual = 0.032625, Final residual = 0.00287027, No Iterations 4
smoothSolver:  Solving for Uy, Initial residual = 0.0233031, Final residual = 0.00202061, No Iterations 4
GAMG:  Solving for p, Initial residual = 0.0383644, Final residual = 0.00301164, No Iterations 2
time step continuity errors : sum local = 0.00962851, global = 0.00128143, cumulative = 0.0175791
smoothSolver:  Solving for omega, Initial residual = 0.000277839, Final residual = 1.30924e-05, No Iterations 3
smoothSolver:  Solving for k, Initial residual = 0.0215384, Final residual = 0.00199753, No Iterations 4
ExecutionTime = 0.23 s  ClockTime = 0 s

scalarTransport execute: age
smoothSolver:  Solving for age, Initial residual = 0.0360234, Final residual = 0.00346175, No Iterations 11

Time = 17

smoothSolver:  Solving for Ux, Initial residual = 0.0297544, Final residual = 0.00260824, No Iterations 4
smoothSolver:  Solving for Uy, Initial residual = 0.0212488, Final residual = 0.00184406, No Iterations 4
GAMG:  Solving for p, Initial residual = 0.0365242, Final residual = 0.00289209, No Iterations 2
time step continuity errors : sum local = 0.00912922, global = 0.00119779, cumulative = 0.0187769
smoothSolver:  Solving for omega, Initial residual = 0.00024492, Final residual = 2.3976e-05, No Iterations 2
smoothSolver:  Solving for k, Initial residual = 0.0201008, Final residual = 0.00182151, No Iterations 4
ExecutionTime = 0.24 s  ClockTime = 0 s

scalarTransport execute: age
smoothSolver:  Solving for age, Initial residual = 0.032875, Final residual = 0.00294019, No Iterations 12

Time = 18

smoothSolver:  Solving for Ux, Initial residual = 0.0272563, Final residual = 0.00239001, No Iterations 4
smoothSolver:  Solving for Uy, Initial residual = 0.0193575, Final residual = 0.00168354, No Iterations 4
GAMG:  Solving for p, Initial residual = 0.034534, Final residual = 0.00274835, No Iterations 2
time step continuity errors : sum local = 0.0085477, global = 0.00112468, cumulative = 0.0199016
smoothSolver:  Solving for omega, Initial residual = 0.000230718, Final residual = 2.21255e-05, No Iterations 2
smoothSolver:  Solving for k, Initial residual = 0.0186349, Final residual = 0.00165801, No Iterations 4
ExecutionTime = 0.25 s  ClockTime = 0 s

scalarTransport execute: age
smoothSolver:  Solving for age, Initial residual = 0.0305846, Final residual = 0.00289337, No Iterations 12

Time = 19

smoothSolver:  Solving for Ux, Initial residual = 0.0250793, Final residual = 0.00220863, No Iterations 4
smoothSolver:  Solving for Uy, Initial residual = 0.0177062, Final residual = 0.00154173, No Iterations 4
GAMG:  Solving for p, Initial residual = 0.0322322, Final residual = 0.00246393, No Iterations 2
time step continuity errors : sum local = 0.00755743, global = 0.00103651, cumulative = 0.0209381
smoothSolver:  Solving for omega, Initial residual = 0.000207601, Final residual = 2.01941e-05, No Iterations 2
smoothSolver:  Solving for k, Initial residual = 0.0171836, Final residual = 0.00150603, No Iterations 4
ExecutionTime = 0.26 s  ClockTime = 0 s

scalarTransport execute: age
smoothSolver:  Solving for age, Initial residual = 0.029014, Final residual = 0.00259501, No Iterations 13

Time = 20

smoothSolver:  Solving for Ux, Initial residual = 0.0233514, Final residual = 0.0020786, No Iterations 4
smoothSolver:  Solving for Uy, Initial residual = 0.0161404, Final residual = 0.00141598, No Iterations 4
GAMG:  Solving for p, Initial residual = 0.029738, Final residual = 0.00206011, No Iterations 2
time step continuity errors : sum local = 0.00622227, global = 0.000874238, cumulative = 0.0218123
smoothSolver:  Solving for omega, Initial residual = 0.000198945, Final residual = 1.87484e-05, No Iterations 2
smoothSolver:  Solving for k, Initial residual = 0.0157539, Final residual = 0.00136651, No Iterations 4
ExecutionTime = 0.28 s  ClockTime = 1 s

scalarTransport execute: age
smoothSolver:  Solving for age, Initial residual = 0.0280571, Final residual = 0.00270979, No Iterations 13

Time = 21

smoothSolver:  Solving for Ux, Initial residual = 0.0217742, Final residual = 0.00197691, No Iterations 4
smoothSolver:  Solving for Uy, Initial residual = 0.0148317, Final residual = 0.00130904, No Iterations 4
GAMG:  Solving for p, Initial residual = 0.0270044, Final residual = 0.0019186, No Iterations 2
time step continuity errors : sum local = 0.00569698, global = 0.000712047, cumulative = 0.0225243
smoothSolver:  Solving for omega, Initial residual = 0.000175364, Final residual = 1.71864e-05, No Iterations 2
smoothSolver:  Solving for k, Initial residual = 0.0143378, Final residual = 0.00124047, No Iterations 4
ExecutionTime = 0.29 s  ClockTime = 1 s

scalarTransport execute: age
smoothSolver:  Solving for age, Initial residual = 0.027177, Final residual = 0.00268207, No Iterations 13

Time = 22

smoothSolver:  Solving for Ux, Initial residual = 0.0204276, Final residual = 0.00190039, No Iterations 4
smoothSolver:  Solving for Uy, Initial residual = 0.0135694, Final residual = 0.00121146, No Iterations 4
GAMG:  Solving for p, Initial residual = 0.02454, Final residual = 0.00185474, No Iterations 2
time step continuity errors : sum local = 0.0054332, global = 0.000565907, cumulative = 0.0230903
smoothSolver:  Solving for omega, Initial residual = 0.000160668, Final residual = 7.30805e-06, No Iterations 3
smoothSolver:  Solving for k, Initial residual = 0.0130242, Final residual = 0.0011284, No Iterations 4
ExecutionTime = 0.3 s  ClockTime = 1 s

scalarTransport execute: age
smoothSolver:  Solving for age, Initial residual = 0.0254348, Final residual = 0.00253063, No Iterations 13

Time = 23

smoothSolver:  Solving for Ux, Initial residual = 0.019268, Final residual = 0.00185121, No Iterations 4
smoothSolver:  Solving for Uy, Initial residual = 0.0123281, Final residual = 0.0011182, No Iterations 4
GAMG:  Solving for p, Initial residual = 0.0221721, Final residual = 0.00177179, No Iterations 2
time step continuity errors : sum local = 0.00512766, global = 0.000417789, cumulative = 0.023508
smoothSolver:  Solving for omega, Initial residual = 0.000137156, Final residual = 6.56015e-06, No Iterations 3
smoothSolver:  Solving for k, Initial residual = 0.0118837, Final residual = 0.00103408, No Iterations 4
ExecutionTime = 0.31 s  ClockTime = 1 s

scalarTransport execute: age
smoothSolver:  Solving for age, Initial residual = 0.0234241, Final residual = 0.00229269, No Iterations 13

Time = 24

smoothSolver:  Solving for Ux, Initial residual = 0.0182902, Final residual = 0.00181, No Iterations 4
smoothSolver:  Solving for Uy, Initial residual = 0.011227, Final residual = 0.00103863, No Iterations 4
GAMG:  Solving for p, Initial residual = 0.0200712, Final residual = 0.0016929, No Iterations 2
time step continuity errors : sum local = 0.00484743, global = 0.000324541, cumulative = 0.0238326
smoothSolver:  Solving for omega, Initial residual = 0.000123124, Final residual = 6.13816e-06, No Iterations 3
smoothSolver:  Solving for k, Initial residual = 0.0109051, Final residual = 0.000955316, No Iterations 4
ExecutionTime = 0.33 s  ClockTime = 1 s

scalarTransport execute: age
smoothSolver:  Solving for age, Initial residual = 0.0217073, Final residual = 0.00204132, No Iterations 13

Time = 25

smoothSolver:  Solving for Ux, Initial residual = 0.0173823, Final residual = 0.00106019, No Iterations 5
smoothSolver:  Solving for Uy, Initial residual = 0.0102385, Final residual = 0.000978243, No Iterations 4
GAMG:  Solving for p, Initial residual = 0.0186516, Final residual = 0.00167703, No Iterations 2
time step continuity errors : sum local = 0.00476838, global = 0.000250171, cumulative = 0.0240828
smoothSolver:  Solving for omega, Initial residual = 0.000124339, Final residual = 5.98283e-06, No Iterations 3
smoothSolver:  Solving for k, Initial residual = 0.0100376, Final residual = 0.000882668, No Iterations 4
ExecutionTime = 0.34 s  ClockTime = 1 s

scalarTransport execute: age
smoothSolver:  Solving for age, Initial residual = 0.0198158, Final residual = 0.00177216, No Iterations 13

Time = 26

smoothSolver:  Solving for Ux, Initial residual = 0.0164611, Final residual = 0.00102032, No Iterations 5
smoothSolver:  Solving for Uy, Initial residual = 0.009535, Final residual = 0.000942669, No Iterations 4
GAMG:  Solving for p, Initial residual = 0.0167968, Final residual = 0.00154798, No Iterations 2
time step continuity errors : sum local = 0.0043714, global = 0.000140205, cumulative = 0.024223
smoothSolver:  Solving for omega, Initial residual = 0.000120257, Final residual = 6.00381e-06, No Iterations 3
smoothSolver:  Solving for k, Initial residual = 0.00931882, Final residual = 0.000818196, No Iterations 4
ExecutionTime = 0.35 s  ClockTime = 1 s

scalarTransport execute: age
smoothSolver:  Solving for age, Initial residual = 0.0177653, Final residual = 0.00175069, No Iterations 12

Time = 27

smoothSolver:  Solving for Ux, Initial residual = 0.0155837, Final residual = 0.000980343, No Iterations 5
smoothSolver:  Solving for Uy, Initial residual = 0.0090603, Final residual = 0.000558241, No Iterations 5
GAMG:  Solving for p, Initial residual = 0.0156334, Final residual = 0.00141925, No Iterations 2
time step continuity errors : sum local = 0.00397623, global = 5.93514e-05, cumulative = 0.0242823
smoothSolver:  Solving for omega, Initial residual = 0.000111104, Final residual = 5.79683e-06, No Iterations 3
smoothSolver:  Solving for k, Initial residual = 0.00871219, Final residual = 0.000763484, No Iterations 4
ExecutionTime = 0.36 s  ClockTime = 1 s

scalarTransport execute: age
smoothSolver:  Solving for age, Initial residual = 0.0166785, Final residual = 0.00156292, No Iterations 12

Time = 28

smoothSolver:  Solving for Ux, Initial residual = 0.0150429, Final residual = 0.000963817, No Iterations 5
smoothSolver:  Solving for Uy, Initial residual = 0.00853985, Final residual = 0.000537209, No Iterations 5
GAMG:  Solving for p, Initial residual = 0.0145917, Final residual = 0.0014046, No Iterations 2
time step continuity errors : sum local = 0.00391432, global = 8.78447e-06, cumulative = 0.0242911
smoothSolver:  Solving for omega, Initial residual = 0.000113634, Final residual = 5.70607e-06, No Iterations 3
smoothSolver:  Solving for k, Initial residual = 0.00818164, Final residual = 0.000716185, No Iterations 4
ExecutionTime = 0.38 s  ClockTime = 1 s

scalarTransport execute: age
smoothSolver:  Solving for age, Initial residual = 0.0157593, Final residual = 0.00138928, No Iterations 12

Time = 29

smoothSolver:  Solving for Ux, Initial residual = 0.0145874, Final residual = 0.000948454, No Iterations 5
smoothSolver:  Solving for Uy, Initial residual = 0.00821599, Final residual = 0.000526372, No Iterations 5
GAMG:  Solving for p, Initial residual = 0.0137536, Final residual = 0.000660363, No Iterations 3
time step continuity errors : sum local = 0.00183134, global = 2.19269e-05, cumulative = 0.024313
smoothSolver:  Solving for omega, Initial residual = 0.000116034, Final residual = 5.65219e-06, No Iterations 3
smoothSolver:  Solving for k, Initial residual = 0.00782616, Final residual = 0.000680813, No Iterations 4
ExecutionTime = 0.39 s  ClockTime = 1 s

scalarTransport execute: age
smoothSolver:  Solving for age, Initial residual = 0.0151346, Final residual = 0.00147107, No Iterations 11

Time = 30

smoothSolver:  Solving for Ux, Initial residual = 0.0140375, Final residual = 0.000910579, No Iterations 5
smoothSolver:  Solving for Uy, Initial residual = 0.00824637, Final residual = 0.000538061, No Iterations 5
GAMG:  Solving for p, Initial residual = 0.0129174, Final residual = 0.00110646, No Iterations 2
time step continuity errors : sum local = 0.00305331, global = 1.8767e-05, cumulative = 0.0243318
smoothSolver:  Solving for omega, Initial residual = 0.000119524, Final residual = 5.69973e-06, No Iterations 3
smoothSolver:  Solving for k, Initial residual = 0.00747007, Final residual = 0.000648718, No Iterations 4
ExecutionTime = 0.4 s  ClockTime = 1 s

scalarTransport execute: age
smoothSolver:  Solving for age, Initial residual = 0.0150151, Final residual = 0.00141807, No Iterations 11

Time = 31

smoothSolver:  Solving for Ux, Initial residual = 0.0139212, Final residual = 0.00092799, No Iterations 5
smoothSolver:  Solving for Uy, Initial residual = 0.00802174, Final residual = 0.000528132, No Iterations 5
GAMG:  Solving for p, Initial residual = 0.0132658, Final residual = 0.000722891, No Iterations 3
time step continuity errors : sum local = 0.00198478, global = 4.43657e-05, cumulative = 0.0243762
smoothSolver:  Solving for omega, Initial residual = 0.000127699, Final residual = 1.24555e-05, No Iterations 2
smoothSolver:  Solving for k, Initial residual = 0.00719904, Final residual = 0.000626117, No Iterations 4
ExecutionTime = 0.43 s  ClockTime = 1 s

scalarTransport execute: age
smoothSolver:  Solving for age, Initial residual = 0.015213, Final residual = 0.00138643, No Iterations 11

Time = 32

smoothSolver:  Solving for Ux, Initial residual = 0.0134015, Final residual = 0.000887385, No Iterations 5
smoothSolver:  Solving for Uy, Initial residual = 0.00824657, Final residual = 0.000545738, No Iterations 5
GAMG:  Solving for p, Initial residual = 0.0123947, Final residual = 0.00120389, No Iterations 2
time step continuity errors : sum local = 0.00329054, global = 7.63268e-05, cumulative = 0.0244525
smoothSolver:  Solving for omega, Initial residual = 0.000120265, Final residual = 6.27548e-06, No Iterations 3
smoothSolver:  Solving for k, Initial residual = 0.00695382, Final residual = 0.000608061, No Iterations 4
ExecutionTime = 0.44 s  ClockTime = 1 s

scalarTransport execute: age
smoothSolver:  Solving for age, Initial residual = 0.0157543, Final residual = 0.00141209, No Iterations 11

Time = 33

smoothSolver:  Solving for Ux, Initial residual = 0.0134253, Final residual = 0.000911021, No Iterations 5
smoothSolver:  Solving for Uy, Initial residual = 0.00816425, Final residual = 0.000545036, No Iterations 5
GAMG:  Solving for p, Initial residual = 0.0131254, Final residual = 0.000761161, No Iterations 3
time step continuity errors : sum local = 0.0020717, global = 9.52884e-05, cumulative = 0.0245478
smoothSolver:  Solving for omega, Initial residual = 0.000116184, Final residual = 6.31864e-06, No Iterations 3
smoothSolver:  Solving for k, Initial residual = 0.00679077, Final residual = 0.000596593, No Iterations 4
ExecutionTime = 0.45 s  ClockTime = 1 s

scalarTransport execute: age
smoothSolver:  Solving for age, Initial residual = 0.0163054, Final residual = 0.00143974, No Iterations 11

Time = 34

smoothSolver:  Solving for Ux, Initial residual = 0.0120867, Final residual = 0.00080456, No Iterations 5
smoothSolver:  Solving for Uy, Initial residual = 0.00877887, Final residual = 0.000566171, No Iterations 5
GAMG:  Solving for p, Initial residual = 0.0126246, Final residual = 0.00059132, No Iterations 3
time step continuity errors : sum local = 0.00160016, global = 0.000109987, cumulative = 0.0246578
smoothSolver:  Solving for omega, Initial residual = 0.000120494, Final residual = 6.44207e-06, No Iterations 3
smoothSolver:  Solving for k, Initial residual = 0.00661968, Final residual = 0.00058358, No Iterations 4
ExecutionTime = 0.46 s  ClockTime = 1 s

scalarTransport execute: age
smoothSolver:  Solving for age, Initial residual = 0.0171009, Final residual = 0.00147929, No Iterations 11

Time = 35

smoothSolver:  Solving for Ux, Initial residual = 0.0127019, Final residual = 0.000865654, No Iterations 5
smoothSolver:  Solving for Uy, Initial residual = 0.00861793, Final residual = 0.000573177, No Iterations 5
GAMG:  Solving for p, Initial residual = 0.0130192, Final residual = 0.000597702, No Iterations 3
time step continuity errors : sum local = 0.00160867, global = 0.000121954, cumulative = 0.0247797
smoothSolver:  Solving for omega, Initial residual = 0.000124904, Final residual = 6.67312e-06, No Iterations 3
smoothSolver:  Solving for k, Initial residual = 0.0064323, Final residual = 0.000566721, No Iterations 4
ExecutionTime = 0.48 s  ClockTime = 1 s

scalarTransport execute: age
smoothSolver:  Solving for age, Initial residual = 0.0175137, Final residual = 0.00173089, No Iterations 10

Time = 36

smoothSolver:  Solving for Ux, Initial residual = 0.0126287, Final residual = 0.000872705, No Iterations 5
smoothSolver:  Solving for Uy, Initial residual = 0.00865382, Final residual = 0.000573672, No Iterations 5
GAMG:  Solving for p, Initial residual = 0.0133416, Final residual = 0.000621773, No Iterations 3
time step continuity errors : sum local = 0.00166653, global = 0.000132419, cumulative = 0.0249121
smoothSolver:  Solving for omega, Initial residual = 0.000132481, Final residual = 6.89519e-06, No Iterations 3
smoothSolver:  Solving for k, Initial residual = 0.00621969, Final residual = 0.000544689, No Iterations 4
ExecutionTime = 0.49 s  ClockTime = 1 s

scalarTransport execute: age
smoothSolver:  Solving for age, Initial residual = 0.0179016, Final residual = 0.00175129, No Iterations 10

Time = 37

smoothSolver:  Solving for Ux, Initial residual = 0.0123609, Final residual = 0.000858473, No Iterations 5
smoothSolver:  Solving for Uy, Initial residual = 0.00866944, Final residual = 0.000571577, No Iterations 5
GAMG:  Solving for p, Initial residual = 0.0135112, Final residual = 0.00061108, No Iterations 3
time step continuity errors : sum local = 0.00163287, global = 0.000142711, cumulative = 0.0250548
smoothSolver:  Solving for omega, Initial residual = 0.000134385, Final residual = 7.02347e-06, No Iterations 3
smoothSolver:  Solving for k, Initial residual = 0.00597857, Final residual = 0.000517868, No Iterations 4
ExecutionTime = 0.5 s  ClockTime = 1 s

scalarTransport execute: age
smoothSolver:  Solving for age, Initial residual = 0.0180775, Final residual = 0.00176341, No Iterations 10

Time = 38

smoothSolver:  Solving for Ux, Initial residual = 0.0119108, Final residual = 0.000827834, No Iterations 5
smoothSolver:  Solving for Uy, Initial residual = 0.00864224, Final residual = 0.000564708, No Iterations 5
GAMG:  Solving for p, Initial residual = 0.0136264, Final residual = 0.000584159, No Iterations 3
time step continuity errors : sum local = 0.00155732, global = 0.000153649, cumulative = 0.0252085
smoothSolver:  Solving for omega, Initial residual = 0.000130408, Final residual = 7.15579e-06, No Iterations 3
smoothSolver:  Solving for k, Initial residual = 0.00570796, Final residual = 0.000487079, No Iterations 4
ExecutionTime = 0.51 s  ClockTime = 1 s

scalarTransport execute: age
smoothSolver:  Solving for age, Initial residual = 0.0182636, Final residual = 0.00178837, No Iterations 10

Time = 39

smoothSolver:  Solving for Ux, Initial residual = 0.0115585, Final residual = 0.000805745, No Iterations 5
smoothSolver:  Solving for Uy, Initial residual = 0.00849278, Final residual = 0.000552249, No Iterations 5
GAMG:  Solving for p, Initial residual = 0.0136105, Final residual = 0.000556535, No Iterations 3
time step continuity errors : sum local = 0.00148074, global = 0.000164427, cumulative = 0.0253729
smoothSolver:  Solving for omega, Initial residual = 0.000130154, Final residual = 7.20581e-06, No Iterations 3
smoothSolver:  Solving for k, Initial residual = 0.00540067, Final residual = 0.000454218, No Iterations 4
ExecutionTime = 0.53 s  ClockTime = 1 s

scalarTransport execute: age
smoothSolver:  Solving for age, Initial residual = 0.0180816, Final residual = 0.00180202, No Iterations 10

Time = 40

smoothSolver:  Solving for Ux, Initial residual = 0.0110814, Final residual = 0.000773664, No Iterations 5
smoothSolver:  Solving for Uy, Initial residual = 0.00826086, Final residual = 0.000534104, No Iterations 5
GAMG:  Solving for p, Initial residual = 0.0134018, Final residual = 0.00053001, No Iterations 3
time step continuity errors : sum local = 0.00140728, global = 0.000173216, cumulative = 0.0255461
smoothSolver:  Solving for omega, Initial residual = 0.000132843, Final residual = 7.21971e-06, No Iterations 3
smoothSolver:  Solving for k, Initial residual = 0.00506328, Final residual = 0.000420411, No Iterations 4
ExecutionTime = 0.54 s  ClockTime = 1 s

scalarTransport execute: age
smoothSolver:  Solving for age, Initial residual = 0.0176181, Final residual = 0.00155222, No Iterations 11

Time = 41

smoothSolver:  Solving for Ux, Initial residual = 0.0105542, Final residual = 0.000737037, No Iterations 5
smoothSolver:  Solving for Uy, Initial residual = 0.00792627, Final residual = 0.000510245, No Iterations 5
GAMG:  Solving for p, Initial residual = 0.0130546, Final residual = 0.000509759, No Iterations 3
time step continuity errors : sum local = 0.00135023, global = 0.000173916, cumulative = 0.02572
smoothSolver:  Solving for omega, Initial residual = 0.00012723, Final residual = 7.05156e-06, No Iterations 3
smoothSolver:  Solving for k, Initial residual = 0.00469839, Final residual = 0.000386587, No Iterations 4
ExecutionTime = 0.55 s  ClockTime = 1 s

scalarTransport execute: age
smoothSolver:  Solving for age, Initial residual = 0.0169818, Final residual = 0.00154213, No Iterations 11

Time = 42

smoothSolver:  Solving for Ux, Initial residual = 0.0100347, Final residual = 0.0006961, No Iterations 5
smoothSolver:  Solving for Uy, Initial residual = 0.00749888, Final residual = 0.000481356, No Iterations 5
GAMG:  Solving for p, Initial residual = 0.0125769, Final residual = 0.000491851, No Iterations 3
time step continuity errors : sum local = 0.00129888, global = 0.000165517, cumulative = 0.0258856
smoothSolver:  Solving for omega, Initial residual = 0.000127682, Final residual = 6.69157e-06, No Iterations 3
smoothSolver:  Solving for k, Initial residual = 0.00434148, Final residual = 0.000354072, No Iterations 4
ExecutionTime = 0.56 s  ClockTime = 1 s

scalarTransport execute: age
smoothSolver:  Solving for age, Initial residual = 0.0161561, Final residual = 0.00151859, No Iterations 11

Time = 43

smoothSolver:  Solving for Ux, Initial residual = 0.00958664, Final residual = 0.00066209, No Iterations 5
smoothSolver:  Solving for Uy, Initial residual = 0.00696729, Final residual = 0.000447942, No Iterations 5
GAMG:  Solving for p, Initial residual = 0.0120445, Final residual = 0.000469415, No Iterations 3
time step continuity errors : sum local = 0.00123529, global = 0.000155959, cumulative = 0.0260415
smoothSolver:  Solving for omega, Initial residual = 0.000112393, Final residual = 6.27588e-06, No Iterations 3
smoothSolver:  Solving for k, Initial residual = 0.00400098, Final residual = 0.000323758, No Iterations 4
ExecutionTime = 0.58 s  ClockTime = 1 s

scalarTransport execute: age
smoothSolver:  Solving for age, Initial residual = 0.0151874, Final residual = 0.00147414, No Iterations 11

Time = 44

smoothSolver:  Solving for Ux, Initial residual = 0.00914259, Final residual = 0.000630957, No Iterations 5
smoothSolver:  Solving for Uy, Initial residual = 0.00638133, Final residual = 0.000409537, No Iterations 5
GAMG:  Solving for p, Initial residual = 0.0114371, Final residual = 0.000442151, No Iterations 3
time step continuity errors : sum local = 0.00115897, global = 0.00014583, cumulative = 0.0261874
smoothSolver:  Solving for omega, Initial residual = 9.79789e-05, Final residual = 5.8127e-06, No Iterations 3
smoothSolver:  Solving for k, Initial residual = 0.00367215, Final residual = 0.000296221, No Iterations 4
ExecutionTime = 0.59 s  ClockTime = 1 s

scalarTransport execute: age
smoothSolver:  Solving for age, Initial residual = 0.0142409, Final residual = 0.00141515, No Iterations 11

Time = 45

smoothSolver:  Solving for Ux, Initial residual = 0.00867815, Final residual = 0.000598952, No Iterations 5
smoothSolver:  Solving for Uy, Initial residual = 0.00577903, Final residual = 0.000368947, No Iterations 5
GAMG:  Solving for p, Initial residual = 0.0107773, Final residual = 0.00041552, No Iterations 3
time step continuity errors : sum local = 0.00108461, global = 0.000136991, cumulative = 0.0263243
smoothSolver:  Solving for omega, Initial residual = 9.00417e-05, Final residual = 5.30892e-06, No Iterations 3
smoothSolver:  Solving for k, Initial residual = 0.0033667, Final residual = 0.000272295, No Iterations 4
ExecutionTime = 0.6 s  ClockTime = 1 s

scalarTransport execute: age
smoothSolver:  Solving for age, Initial residual = 0.0133419, Final residual = 0.00115662, No Iterations 12

Time = 46

smoothSolver:  Solving for Ux, Initial residual = 0.00818078, Final residual = 0.000567657, No Iterations 5
smoothSolver:  Solving for Uy, Initial residual = 0.00520594, Final residual = 0.000329506, No Iterations 5
GAMG:  Solving for p, Initial residual = 0.0101347, Final residual = 0.00038695, No Iterations 3
time step continuity errors : sum local = 0.00100557, global = 0.000125731, cumulative = 0.0264501
smoothSolver:  Solving for omega, Initial residual = 7.61813e-05, Final residual = 4.75933e-06, No Iterations 3
smoothSolver:  Solving for k, Initial residual = 0.0031032, Final residual = 0.000252067, No Iterations 4
ExecutionTime = 0.61 s  ClockTime = 1 s

scalarTransport execute: age
smoothSolver:  Solving for age, Initial residual = 0.0127163, Final residual = 0.00109255, No Iterations 12

Time = 47

smoothSolver:  Solving for Ux, Initial residual = 0.00767887, Final residual = 0.000537129, No Iterations 5
smoothSolver:  Solving for Uy, Initial residual = 0.00473885, Final residual = 0.000297485, No Iterations 5
GAMG:  Solving for p, Initial residual = 0.00956969, Final residual = 0.000353895, No Iterations 3
time step continuity errors : sum local = 0.000915376, global = 0.000115782, cumulative = 0.0265659
smoothSolver:  Solving for omega, Initial residual = 7.51649e-05, Final residual = 4.26815e-06, No Iterations 3
smoothSolver:  Solving for k, Initial residual = 0.00290145, Final residual = 0.000235049, No Iterations 4
ExecutionTime = 0.63 s  ClockTime = 1 s

scalarTransport execute: age
smoothSolver:  Solving for age, Initial residual = 0.0122267, Final residual = 0.00120922, No Iterations 11

Time = 48

smoothSolver:  Solving for Ux, Initial residual = 0.00716673, Final residual = 0.000511975, No Iterations 5
smoothSolver:  Solving for Uy, Initial residual = 0.00436285, Final residual = 0.000271851, No Iterations 5
GAMG:  Solving for p, Initial residual = 0.00907533, Final residual = 0.000901027, No Iterations 2
time step continuity errors : sum local = 0.00231921, global = 0.000117673, cumulative = 0.0266835
smoothSolver:  Solving for omega, Initial residual = 7.05736e-05, Final residual = 3.85793e-06, No Iterations 3
smoothSolver:  Solving for k, Initial residual = 0.0027282, Final residual = 0.000220232, No Iterations 4
ExecutionTime = 0.64 s  ClockTime = 1 s

scalarTransport execute: age
smoothSolver:  Solving for age, Initial residual = 0.0119901, Final residual = 0.00118416, No Iterations 11

Time = 49

smoothSolver:  Solving for Ux, Initial residual = 0.00669366, Final residual = 0.000491586, No Iterations 5
smoothSolver:  Solving for Uy, Initial residual = 0.003993, Final residual = 0.000254739, No Iterations 5
GAMG:  Solving for p, Initial residual = 0.00913134, Final residual = 0.000386848, No Iterations 3
time step continuity errors : sum local = 0.000992919, global = 0.000113629, cumulative = 0.0267972
smoothSolver:  Solving for omega, Initial residual = 7.24061e-05, Final residual = 3.55525e-06, No Iterations 3
smoothSolver:  Solving for k, Initial residual = 0.00261256, Final residual = 0.000206802, No Iterations 4
ExecutionTime = 0.65 s  ClockTime = 1 s

scalarTransport execute: age
smoothSolver:  Solving for age, Initial residual = 0.0114236, Final residual = 0.00112166, No Iterations 11

Time = 50

smoothSolver:  Solving for Ux, Initial residual = 0.00632792, Final residual = 0.000464568, No Iterations 5
smoothSolver:  Solving for Uy, Initial residual = 0.00382441, Final residual = 0.000235469, No Iterations 5
GAMG:  Solving for p, Initial residual = 0.00835094, Final residual = 0.000762595, No Iterations 2
time step continuity errors : sum local = 0.00194189, global = 8.9475e-05, cumulative = 0.0268866
smoothSolver:  Solving for omega, Initial residual = 6.57143e-05, Final residual = 6.47866e-06, No Iterations 2
smoothSolver:  Solving for k, Initial residual = 0.0024671, Final residual = 0.000193724, No Iterations 4
ExecutionTime = 0.66 s  ClockTime = 1 s

scalarTransport execute: age
smoothSolver:  Solving for age, Initial residual = 0.0111312, Final residual = 0.00109824, No Iterations 11

Time = 51

smoothSolver:  Solving for Ux, Initial residual = 0.0058422, Final residual = 0.000440494, No Iterations 5
smoothSolver:  Solving for Uy, Initial residual = 0.00351931, Final residual = 0.000223763, No Iterations 5
GAMG:  Solving for p, Initial residual = 0.00862002, Final residual = 0.00031841, No Iterations 3
time step continuity errors : sum local = 0.000807799, global = 8.42333e-05, cumulative = 0.0269709
smoothSolver:  Solving for omega, Initial residual = 6.59034e-05, Final residual = 6.57278e-06, No Iterations 2
smoothSolver:  Solving for k, Initial residual = 0.00234119, Final residual = 0.000180677, No Iterations 4
ExecutionTime = 0.68 s  ClockTime = 1 s

scalarTransport execute: age
smoothSolver:  Solving for age, Initial residual = 0.0107509, Final residual = 0.00107476, No Iterations 11

Time = 52

smoothSolver:  Solving for Ux, Initial residual = 0.0055292, Final residual = 0.000419383, No Iterations 5
smoothSolver:  Solving for Uy, Initial residual = 0.00335878, Final residual = 0.000205868, No Iterations 5
GAMG:  Solving for p, Initial residual = 0.0078024, Final residual = 0.000747706, No Iterations 2
time step continuity errors : sum local = 0.0018844, global = 5.62117e-05, cumulative = 0.0270271
smoothSolver:  Solving for omega, Initial residual = 6.47532e-05, Final residual = 3.27666e-06, No Iterations 3
smoothSolver:  Solving for k, Initial residual = 0.00220588, Final residual = 0.00016851, No Iterations 4
ExecutionTime = 0.69 s  ClockTime = 1 s

scalarTransport execute: age
smoothSolver:  Solving for age, Initial residual = 0.0104753, Final residual = 0.000941517, No Iterations 12

Time = 53

smoothSolver:  Solving for Ux, Initial residual = 0.00522292, Final residual = 0.000399352, No Iterations 5
smoothSolver:  Solving for Uy, Initial residual = 0.00311953, Final residual = 0.000194158, No Iterations 5
GAMG:  Solving for p, Initial residual = 0.00815212, Final residual = 0.000316608, No Iterations 3
time step continuity errors : sum local = 0.000795179, global = 4.16897e-05, cumulative = 0.0270688
smoothSolver:  Solving for omega, Initial residual = 5.6119e-05, Final residual = 3.01362e-06, No Iterations 3
smoothSolver:  Solving for k, Initial residual = 0.00210194, Final residual = 0.000157511, No Iterations 4
ExecutionTime = 0.7 s  ClockTime = 1 s

scalarTransport execute: age
smoothSolver:  Solving for age, Initial residual = 0.0101775, Final residual = 0.000954122, No Iterations 12

Time = 54

smoothSolver:  Solving for Ux, Initial residual = 0.0050503, Final residual = 0.000376933, No Iterations 5
smoothSolver:  Solving for Uy, Initial residual = 0.00299576, Final residual = 0.000181013, No Iterations 5
GAMG:  Solving for p, Initial residual = 0.00721354, Final residual = 0.000720094, No Iterations 2
time step continuity errors : sum local = 0.00180022, global = 2.6781e-06, cumulative = 0.0270714
smoothSolver:  Solving for omega, Initial residual = 5.43959e-05, Final residual = 2.76764e-06, No Iterations 3
smoothSolver:  Solving for k, Initial residual = 0.00199262, Final residual = 0.000147891, No Iterations 4
ExecutionTime = 0.71 s  ClockTime = 1 s

scalarTransport execute: age
smoothSolver:  Solving for age, Initial residual = 0.00986789, Final residual = 0.000979994, No Iterations 12

Time = 55

smoothSolver:  Solving for Ux, Initial residual = 0.0048138, Final residual = 0.000356742, No Iterations 5
smoothSolver:  Solving for Uy, Initial residual = 0.00283056, Final residual = 0.000169026, No Iterations 5
GAMG:  Solving for p, Initial residual = 0.00736745, Final residual = 0.000302625, No Iterations 3
time step continuity errors : sum local = 0.00075461, global = -2.45369e-05, cumulative = 0.0270469
smoothSolver:  Solving for omega, Initial residual = 4.72414e-05, Final residual = 2.59383e-06, No Iterations 3
smoothSolver:  Solving for k, Initial residual = 0.00190585, Final residual = 0.000138784, No Iterations 4
ExecutionTime = 0.72 s  ClockTime = 1 s

scalarTransport execute: age
smoothSolver:  Solving for age, Initial residual = 0.00959405, Final residual = 0.000861031, No Iterations 13

Time = 56

smoothSolver:  Solving for Ux, Initial residual = 0.00464688, Final residual = 0.000328374, No Iterations 5
smoothSolver:  Solving for Uy, Initial residual = 0.0027516, Final residual = 0.00026283, No Iterations 4
GAMG:  Solving for p, Initial residual = 0.00644275, Final residual = 0.000229262, No Iterations 3
time step continuity errors : sum local = 0.000570667, global = -6.43392e-05, cumulative = 0.0269826
smoothSolver:  Solving for omega, Initial residual = 4.90653e-05, Final residual = 4.78261e-06, No Iterations 2
smoothSolver:  Solving for k, Initial residual = 0.00179654, Final residual = 0.000129329, No Iterations 4
ExecutionTime = 0.74 s  ClockTime = 1 s

scalarTransport execute: age
smoothSolver:  Solving for age, Initial residual = 0.00927807, Final residual = 0.000843032, No Iterations 13

Time = 57

smoothSolver:  Solving for Ux, Initial residual = 0.00438784, Final residual = 0.000303354, No Iterations 5
smoothSolver:  Solving for Uy, Initial residual = 0.00263979, Final residual = 0.000246852, No Iterations 4
GAMG:  Solving for p, Initial residual = 0.00610888, Final residual = 0.00020959, No Iterations 3
time step continuity errors : sum local = 0.000521494, global = -7.69974e-05, cumulative = 0.0269056
smoothSolver:  Solving for omega, Initial residual = 5.3997e-05, Final residual = 4.78556e-06, No Iterations 2
smoothSolver:  Solving for k, Initial residual = 0.00168143, Final residual = 0.000120108, No Iterations 4
ExecutionTime = 0.75 s  ClockTime = 1 s

scalarTransport execute: age
smoothSolver:  Solving for age, Initial residual = 0.00878383, Final residual = 0.000795821, No Iterations 13

Time = 58

smoothSolver:  Solving for Ux, Initial residual = 0.004128, Final residual = 0.000277137, No Iterations 5
smoothSolver:  Solving for Uy, Initial residual = 0.00251009, Final residual = 0.000231047, No Iterations 4
GAMG:  Solving for p, Initial residual = 0.00571801, Final residual = 0.000198842, No Iterations 3
time step continuity errors : sum local = 0.000495703, global = -6.01397e-05, cumulative = 0.0268454
smoothSolver:  Solving for omega, Initial residual = 4.54976e-05, Final residual = 2.22649e-06, No Iterations 3
smoothSolver:  Solving for k, Initial residual = 0.00156065, Final residual = 0.000111766, No Iterations 4
ExecutionTime = 0.76 s  ClockTime = 1 s

scalarTransport execute: age
smoothSolver:  Solving for age, Initial residual = 0.00822607, Final residual = 0.000743402, No Iterations 13

Time = 59

smoothSolver:  Solving for Ux, Initial residual = 0.00382509, Final residual = 0.000245405, No Iterations 5
smoothSolver:  Solving for Uy, Initial residual = 0.00247117, Final residual = 0.000221872, No Iterations 4
GAMG:  Solving for p, Initial residual = 0.00535763, Final residual = 0.000188427, No Iterations 3
time step continuity errors : sum local = 0.000471688, global = -6.29101e-05, cumulative = 0.0267825
smoothSolver:  Solving for omega, Initial residual = 3.70604e-05, Final residual = 1.94791e-06, No Iterations 3
smoothSolver:  Solving for k, Initial residual = 0.00145073, Final residual = 0.000104028, No Iterations 4
ExecutionTime = 0.77 s  ClockTime = 1 s

scalarTransport execute: age
smoothSolver:  Solving for age, Initial residual = 0.00780374, Final residual = 0.000710923, No Iterations 13

Time = 60

smoothSolver:  Solving for Ux, Initial residual = 0.00359144, Final residual = 0.000227176, No Iterations 5
smoothSolver:  Solving for Uy, Initial residual = 0.00231051, Final residual = 0.000218106, No Iterations 4
GAMG:  Solving for p, Initial residual = 0.00505386, Final residual = 0.000188849, No Iterations 3
time step continuity errors : sum local = 0.000473923, global = -6.09844e-05, cumulative = 0.0267215
smoothSolver:  Solving for omega, Initial residual = 6.30863e-05, Final residual = 4.08654e-06, No Iterations 2
smoothSolver:  Solving for k, Initial residual = 0.00134917, Final residual = 9.67736e-05, No Iterations 4
ExecutionTime = 0.79 s  ClockTime = 1 s

scalarTransport execute: age
smoothSolver:  Solving for age, Initial residual = 0.00749612, Final residual = 0.000696288, No Iterations 13

Time = 61

smoothSolver:  Solving for Ux, Initial residual = 0.00330938, Final residual = 0.000204593, No Iterations 5
smoothSolver:  Solving for Uy, Initial residual = 0.00221519, Final residual = 0.000215993, No Iterations 4
GAMG:  Solving for p, Initial residual = 0.00476002, Final residual = 0.000170888, No Iterations 3
time step continuity errors : sum local = 0.000430017, global = -5.48605e-05, cumulative = 0.0266667
smoothSolver:  Solving for omega, Initial residual = 5.8841e-05, Final residual = 3.74121e-06, No Iterations 2
smoothSolver:  Solving for k, Initial residual = 0.00125434, Final residual = 9.02176e-05, No Iterations 4
ExecutionTime = 0.8 s  ClockTime = 1 s

scalarTransport execute: age
smoothSolver:  Solving for age, Initial residual = 0.0071367, Final residual = 0.000680722, No Iterations 13

Time = 62

smoothSolver:  Solving for Ux, Initial residual = 0.00294506, Final residual = 0.000185074, No Iterations 3
smoothSolver:  Solving for Uy, Initial residual = 0.00547813, Final residual = 0.000356515, No Iterations 3
GAMG:  Solving for p, Initial residual = 0.00412914, Final residual = 0.000142667, No Iterations 3
time step continuity errors : sum local = 0.000359715, global = -4.36786e-05, cumulative = 0.026623
smoothSolver:  Solving for omega, Initial residual = 3.83853e-05, Final residual = 3.14154e-06, No Iterations 2
smoothSolver:  Solving for k, Initial residual = 0.00115818, Final residual = 8.38806e-05, No Iterations 4
ExecutionTime = 0.81 s  ClockTime = 1 s

scalarTransport execute: age
smoothSolver:  Solving for age, Initial residual = 0.00671965, Final residual = 0.000643436, No Iterations 13

Time = 63

smoothSolver:  Solving for Ux, Initial residual = 0.00281532, Final residual = 0.000173393, No Iterations 5
smoothSolver:  Solving for Uy, Initial residual = 0.00202087, Final residual = 0.000130992, No Iterations 5
GAMG:  Solving for p, Initial residual = 0.00442741, Final residual = 0.000183075, No Iterations 3
time step continuity errors : sum local = 0.000462082, global = -3.85301e-05, cumulative = 0.0265845
smoothSolver:  Solving for omega, Initial residual = 3.51208e-05, Final residual = 3.09926e-06, No Iterations 2
smoothSolver:  Solving for k, Initial residual = 0.00109586, Final residual = 7.88232e-05, No Iterations 4
ExecutionTime = 0.82 s  ClockTime = 1 s

scalarTransport execute: age
smoothSolver:  Solving for age, Initial residual = 0.00637265, Final residual = 0.000580723, No Iterations 13

Time = 64

smoothSolver:  Solving for Ux, Initial residual = 0.00256739, Final residual = 0.000157157, No Iterations 5
smoothSolver:  Solving for Uy, Initial residual = 0.00190447, Final residual = 0.000125647, No Iterations 5
GAMG:  Solving for p, Initial residual = 0.00417041, Final residual = 0.000179299, No Iterations 3
time step continuity errors : sum local = 0.000452531, global = -3.12831e-05, cumulative = 0.0265532
smoothSolver:  Solving for omega, Initial residual = 2.76637e-05, Final residual = 1.42931e-06, No Iterations 3
smoothSolver:  Solving for k, Initial residual = 0.00104764, Final residual = 7.41423e-05, No Iterations 4
ExecutionTime = 0.84 s  ClockTime = 1 s

scalarTransport execute: age
smoothSolver:  Solving for age, Initial residual = 0.00602485, Final residual = 0.000597017, No Iterations 12

Time = 65

smoothSolver:  Solving for Ux, Initial residual = 0.00236987, Final residual = 0.000224179, No Iterations 4
smoothSolver:  Solving for Uy, Initial residual = 0.00192019, Final residual = 0.000119483, No Iterations 5
GAMG:  Solving for p, Initial residual = 0.00378441, Final residual = 0.000158658, No Iterations 3
time step continuity errors : sum local = 0.000400198, global = -1.90675e-05, cumulative = 0.0265341
smoothSolver:  Solving for omega, Initial residual = 2.58509e-05, Final residual = 1.26647e-06, No Iterations 3
smoothSolver:  Solving for k, Initial residual = 0.0010016, Final residual = 6.96671e-05, No Iterations 4
ExecutionTime = 0.85 s  ClockTime = 1 s

scalarTransport execute: age
smoothSolver:  Solving for age, Initial residual = 0.00567068, Final residual = 0.000534056, No Iterations 12

Time = 66

smoothSolver:  Solving for Ux, Initial residual = 0.00213341, Final residual = 0.000130653, No Iterations 5
smoothSolver:  Solving for Uy, Initial residual = 0.00170139, Final residual = 0.000111577, No Iterations 5
GAMG:  Solving for p, Initial residual = 0.00367952, Final residual = 0.000166042, No Iterations 3
time step continuity errors : sum local = 0.000418274, global = -5.4817e-06, cumulative = 0.0265286
smoothSolver:  Solving for omega, Initial residual = 2.61631e-05, Final residual = 2.48434e-06, No Iterations 2
smoothSolver:  Solving for k, Initial residual = 0.000967184, Final residual = 6.58151e-05, No Iterations 4
ExecutionTime = 0.86 s  ClockTime = 1 s

scalarTransport execute: age
smoothSolver:  Solving for age, Initial residual = 0.005427, Final residual = 0.000494633, No Iterations 12

Time = 67

smoothSolver:  Solving for Ux, Initial residual = 0.00196011, Final residual = 0.000118937, No Iterations 5
smoothSolver:  Solving for Uy, Initial residual = 0.00158757, Final residual = 0.000104088, No Iterations 5
GAMG:  Solving for p, Initial residual = 0.00342678, Final residual = 0.000154215, No Iterations 3
time step continuity errors : sum local = 0.000387752, global = 8.21111e-06, cumulative = 0.0265369
smoothSolver:  Solving for omega, Initial residual = 2.71386e-05, Final residual = 2.47073e-06, No Iterations 2
smoothSolver:  Solving for k, Initial residual = 0.000927285, Final residual = 6.24577e-05, No Iterations 4
ExecutionTime = 0.87 s  ClockTime = 1 s

scalarTransport execute: age
smoothSolver:  Solving for age, Initial residual = 0.0052635, Final residual = 0.000471877, No Iterations 12

Time = 68

smoothSolver:  Solving for Ux, Initial residual = 0.00181954, Final residual = 0.000109235, No Iterations 5
smoothSolver:  Solving for Uy, Initial residual = 0.00150054, Final residual = 9.61936e-05, No Iterations 5
GAMG:  Solving for p, Initial residual = 0.0032014, Final residual = 0.000141852, No Iterations 3
time step continuity errors : sum local = 0.000355855, global = 2.07003e-05, cumulative = 0.0265576
smoothSolver:  Solving for omega, Initial residual = 2.54932e-05, Final residual = 2.43324e-06, No Iterations 2
smoothSolver:  Solving for k, Initial residual = 0.000877325, Final residual = 5.92433e-05, No Iterations 4
ExecutionTime = 0.89 s  ClockTime = 1 s

scalarTransport execute: age
smoothSolver:  Solving for age, Initial residual = 0.00514015, Final residual = 0.000462322, No Iterations 12

Time = 69

smoothSolver:  Solving for Ux, Initial residual = 0.00171186, Final residual = 0.000102449, No Iterations 5
smoothSolver:  Solving for Uy, Initial residual = 0.0013974, Final residual = 8.81351e-05, No Iterations 5
GAMG:  Solving for p, Initial residual = 0.00300481, Final residual = 0.000124571, No Iterations 3
time step continuity errors : sum local = 0.000311705, global = 2.73005e-05, cumulative = 0.0265849
smoothSolver:  Solving for omega, Initial residual = 2.7621e-05, Final residual = 2.3377e-06, No Iterations 2
smoothSolver:  Solving for k, Initial residual = 0.000821519, Final residual = 5.61419e-05, No Iterations 4
ExecutionTime = 0.9 s  ClockTime = 1 s

scalarTransport execute: age
smoothSolver:  Solving for age, Initial residual = 0.00506145, Final residual = 0.000460556, No Iterations 12

Time = 70

smoothSolver:  Solving for Ux, Initial residual = 0.00162345, Final residual = 9.76317e-05, No Iterations 5
smoothSolver:  Solving for Uy, Initial residual = 0.00127277, Final residual = 8.00196e-05, No Iterations 5
GAMG:  Solving for p, Initial residual = 0.00278653, Final residual = 0.000107625, No Iterations 3
time step continuity errors : sum local = 0.00026854, global = 2.68286e-05, cumulative = 0.0266117
smoothSolver:  Solving for omega, Initial residual = 2.48506e-05, Final residual = 2.25637e-06, No Iterations 2
smoothSolver:  Solving for k, Initial residual = 0.000760454, Final residual = 5.29753e-05, No Iterations 4
ExecutionTime = 0.91 s  ClockTime = 1 s

scalarTransport execute: age
smoothSolver:  Solving for age, Initial residual = 0.00497782, Final residual = 0.000459388, No Iterations 12

Time = 71

smoothSolver:  Solving for Ux, Initial residual = 0.00153182, Final residual = 9.36014e-05, No Iterations 5
smoothSolver:  Solving for Uy, Initial residual = 0.00116791, Final residual = 7.24007e-05, No Iterations 5
GAMG:  Solving for p, Initial residual = 0.0025856, Final residual = 9.58169e-05, No Iterations 3
time step continuity errors : sum local = 0.000238381, global = 2.12124e-05, cumulative = 0.0266329
smoothSolver:  Solving for omega, Initial residual = 2.19756e-05, Final residual = 2.16767e-06, No Iterations 2
smoothSolver:  Solving for k, Initial residual = 0.000700041, Final residual = 4.97962e-05, No Iterations 4
ExecutionTime = 0.92 s  ClockTime = 1 s

scalarTransport execute: age
smoothSolver:  Solving for age, Initial residual = 0.00487112, Final residual = 0.000454683, No Iterations 12

Time = 72

smoothSolver:  Solving for Ux, Initial residual = 0.00144622, Final residual = 9.03512e-05, No Iterations 5
smoothSolver:  Solving for Uy, Initial residual = 0.00106595, Final residual = 6.56311e-05, No Iterations 5
GAMG:  Solving for p, Initial residual = 0.00237893, Final residual = 8.77562e-05, No Iterations 3
time step continuity errors : sum local = 0.000217732, global = 1.29381e-05, cumulative = 0.0266458
smoothSolver:  Solving for omega, Initial residual = 1.98689e-05, Final residual = 1.03514e-06, No Iterations 3
smoothSolver:  Solving for k, Initial residual = 0.000641694, Final residual = 4.64253e-05, No Iterations 4
ExecutionTime = 0.94 s  ClockTime = 1 s

scalarTransport execute: age
smoothSolver:  Solving for age, Initial residual = 0.00476327, Final residual = 0.000447525, No Iterations 12

Time = 73

smoothSolver:  Solving for Ux, Initial residual = 0.00134729, Final residual = 8.62265e-05, No Iterations 5
smoothSolver:  Solving for Uy, Initial residual = 0.000985699, Final residual = 9.83431e-05, No Iterations 4
GAMG:  Solving for p, Initial residual = 0.002155, Final residual = 8.02662e-05, No Iterations 3
time step continuity errors : sum local = 0.000198683, global = 3.49247e-06, cumulative = 0.0266493
smoothSolver:  Solving for omega, Initial residual = 1.98561e-05, Final residual = 1.81945e-06, No Iterations 2
smoothSolver:  Solving for k, Initial residual = 0.000585668, Final residual = 4.29494e-05, No Iterations 4
ExecutionTime = 0.95 s  ClockTime = 1 s

scalarTransport execute: age
smoothSolver:  Solving for age, Initial residual = 0.00465947, Final residual = 0.000437261, No Iterations 12

Time = 74

smoothSolver:  Solving for Ux, Initial residual = 0.00121808, Final residual = 7.68369e-05, No Iterations 5
smoothSolver:  Solving for Uy, Initial residual = 0.00111208, Final residual = 9.05815e-05, No Iterations 4
GAMG:  Solving for p, Initial residual = 0.00198091, Final residual = 0.000197611, No Iterations 2
time step continuity errors : sum local = 0.000488204, global = -8.42611e-06, cumulative = 0.0266409
smoothSolver:  Solving for omega, Initial residual = 1.81574e-05, Final residual = 1.74047e-06, No Iterations 2
smoothSolver:  Solving for k, Initial residual = 0.000534867, Final residual = 3.96137e-05, No Iterations 4
ExecutionTime = 0.96 s  ClockTime = 1 s

scalarTransport execute: age
smoothSolver:  Solving for age, Initial residual = 0.00451698, Final residual = 0.000420289, No Iterations 12

Time = 75

smoothSolver:  Solving for Ux, Initial residual = 0.00114784, Final residual = 7.73305e-05, No Iterations 5
smoothSolver:  Solving for Uy, Initial residual = 0.000801038, Final residual = 5.00212e-05, No Iterations 5
GAMG:  Solving for p, Initial residual = 0.00193377, Final residual = 0.000190114, No Iterations 2
time step continuity errors : sum local = 0.000468994, global = -2.3135e-05, cumulative = 0.0266178
smoothSolver:  Solving for omega, Initial residual = 2.01847e-05, Final residual = 1.66967e-06, No Iterations 2
smoothSolver:  Solving for k, Initial residual = 0.000485494, Final residual = 3.61819e-05, No Iterations 4
ExecutionTime = 0.97 s  ClockTime = 1 s

scalarTransport execute: age
smoothSolver:  Solving for age, Initial residual = 0.00437749, Final residual = 0.000398902, No Iterations 12

Time = 76

smoothSolver:  Solving for Ux, Initial residual = 0.0010841, Final residual = 7.20011e-05, No Iterations 5
smoothSolver:  Solving for Uy, Initial residual = 0.000722703, Final residual = 4.41717e-05, No Iterations 5
GAMG:  Solving for p, Initial residual = 0.00169177, Final residual = 0.000140576, No Iterations 2
time step continuity errors : sum local = 0.000346371, global = -3.46492e-05, cumulative = 0.0265831
smoothSolver:  Solving for omega, Initial residual = 1.93368e-05, Final residual = 1.55341e-06, No Iterations 2
smoothSolver:  Solving for k, Initial residual = 0.000444263, Final residual = 3.27794e-05, No Iterations 4
ExecutionTime = 0.99 s  ClockTime = 1 s

scalarTransport execute: age
smoothSolver:  Solving for age, Initial residual = 0.00421442, Final residual = 0.00038027, No Iterations 12

Time = 77

smoothSolver:  Solving for Ux, Initial residual = 0.00101117, Final residual = 6.72479e-05, No Iterations 5
smoothSolver:  Solving for Uy, Initial residual = 0.000642816, Final residual = 3.98895e-05, No Iterations 5
GAMG:  Solving for p, Initial residual = 0.00145203, Final residual = 9.82906e-05, No Iterations 2
time step continuity errors : sum local = 0.000242031, global = -3.26349e-05, cumulative = 0.0265505
smoothSolver:  Solving for omega, Initial residual = 1.39562e-05, Final residual = 6.99627e-07, No Iterations 3
smoothSolver:  Solving for k, Initial residual = 0.000404493, Final residual = 2.9368e-05, No Iterations 4
ExecutionTime = 1 s  ClockTime = 1 s

scalarTransport execute: age
smoothSolver:  Solving for age, Initial residual = 0.00408321, Final residual = 0.000366765, No Iterations 12

Time = 78

smoothSolver:  Solving for Ux, Initial residual = 0.000928915, Final residual = 6.39647e-05, No Iterations 5
smoothSolver:  Solving for Uy, Initial residual = 0.000584867, Final residual = 3.66939e-05, No Iterations 5
GAMG:  Solving for p, Initial residual = 0.00130513, Final residual = 8.62917e-05, No Iterations 2
time step continuity errors : sum local = 0.00021252, global = -2.60744e-05, cumulative = 0.0265244
smoothSolver:  Solving for omega, Initial residual = 1.29087e-05, Final residual = 1.18925e-06, No Iterations 2
smoothSolver:  Solving for k, Initial residual = 0.000366026, Final residual = 2.62065e-05, No Iterations 4
ExecutionTime = 1.01 s  ClockTime = 1 s

scalarTransport execute: age
smoothSolver:  Solving for age, Initial residual = 0.00400989, Final residual = 0.00035807, No Iterations 12

Time = 79

smoothSolver:  Solving for Ux, Initial residual = 0.000822715, Final residual = 7.00292e-05, No Iterations 4
smoothSolver:  Solving for Uy, Initial residual = 0.00208452, Final residual = 0.000156632, No Iterations 2
GAMG:  Solving for p, Initial residual = 0.00118005, Final residual = 9.5895e-05, No Iterations 2
time step continuity errors : sum local = 0.000236252, global = -2.05954e-05, cumulative = 0.0265038
smoothSolver:  Solving for omega, Initial residual = 1.03297e-05, Final residual = 5.23342e-07, No Iterations 3
smoothSolver:  Solving for k, Initial residual = 0.000327609, Final residual = 2.31573e-05, No Iterations 4
ExecutionTime = 1.02 s  ClockTime = 1 s

scalarTransport execute: age
smoothSolver:  Solving for age, Initial residual = 0.00385036, Final residual = 0.000350765, No Iterations 12

Time = 80

smoothSolver:  Solving for Ux, Initial residual = 0.000828425, Final residual = 5.54282e-05, No Iterations 5
smoothSolver:  Solving for Uy, Initial residual = 0.000547679, Final residual = 3.63053e-05, No Iterations 5
GAMG:  Solving for p, Initial residual = 0.0012302, Final residual = 9.25209e-05, No Iterations 2
time step continuity errors : sum local = 0.00022795, global = -1.96919e-05, cumulative = 0.0264841
smoothSolver:  Solving for omega, Initial residual = 8.97849e-06, Final residual = 4.6747e-07, No Iterations 3
smoothSolver:  Solving for k, Initial residual = 0.000296673, Final residual = 2.05101e-05, No Iterations 4
ExecutionTime = 1.04 s  ClockTime = 1 s

scalarTransport execute: age
smoothSolver:  Solving for age, Initial residual = 0.00376713, Final residual = 0.000347068, No Iterations 12

Time = 81

smoothSolver:  Solving for Ux, Initial residual = 0.000764489, Final residual = 7.26387e-05, No Iterations 4
smoothSolver:  Solving for Uy, Initial residual = 0.00127735, Final residual = 9.02817e-05, No Iterations 3
GAMG:  Solving for p, Initial residual = 0.0011096, Final residual = 9.2138e-05, No Iterations 2
time step continuity errors : sum local = 0.00022702, global = -1.8948e-05, cumulative = 0.0264652
smoothSolver:  Solving for omega, Initial residual = 9.35782e-06, Final residual = 8.31779e-07, No Iterations 2
smoothSolver:  Solving for k, Initial residual = 0.000271096, Final residual = 1.82875e-05, No Iterations 4
ExecutionTime = 1.05 s  ClockTime = 1 s

scalarTransport execute: age
smoothSolver:  Solving for age, Initial residual = 0.00370387, Final residual = 0.000336454, No Iterations 12

Time = 82

smoothSolver:  Solving for Ux, Initial residual = 0.00130503, Final residual = 0.000106233, No Iterations 3
smoothSolver:  Solving for Uy, Initial residual = 0.000504672, Final residual = 3.32548e-05, No Iterations 5
GAMG:  Solving for p, Initial residual = 0.00106156, Final residual = 7.88822e-05, No Iterations 2
time step continuity errors : sum local = 0.000194369, global = -1.56137e-05, cumulative = 0.0264496
smoothSolver:  Solving for omega, Initial residual = 1.25325e-05, Final residual = 8.02307e-07, No Iterations 2
smoothSolver:  Solving for k, Initial residual = 0.0002513, Final residual = 1.64677e-05, No Iterations 4
ExecutionTime = 1.06 s  ClockTime = 1 s

scalarTransport execute: age
smoothSolver:  Solving for age, Initial residual = 0.00358017, Final residual = 0.000318439, No Iterations 12

Time = 83

smoothSolver:  Solving for Ux, Initial residual = 0.000742635, Final residual = 5.22721e-05, No Iterations 5
smoothSolver:  Solving for Uy, Initial residual = 0.000450962, Final residual = 3.03428e-05, No Iterations 5
GAMG:  Solving for p, Initial residual = 0.00111212, Final residual = 4.42226e-05, No Iterations 3
time step continuity errors : sum local = 0.000108967, global = -9.85715e-06, cumulative = 0.0264397
smoothSolver:  Solving for omega, Initial residual = 1.40368e-05, Final residual = 8.38758e-07, No Iterations 2
smoothSolver:  Solving for k, Initial residual = 0.000242076, Final residual = 1.51958e-05, No Iterations 4
ExecutionTime = 1.07 s  ClockTime = 1 s

scalarTransport execute: age
smoothSolver:  Solving for age, Initial residual = 0.00347884, Final residual = 0.000347543, No Iterations 11

Time = 84

smoothSolver:  Solving for Ux, Initial residual = 0.000704134, Final residual = 4.77945e-05, No Iterations 5
smoothSolver:  Solving for Uy, Initial residual = 0.000449542, Final residual = 2.96583e-05, No Iterations 5
GAMG:  Solving for p, Initial residual = 0.00101719, Final residual = 3.65225e-05, No Iterations 3
time step continuity errors : sum local = 9.00025e-05, global = -2.36531e-06, cumulative = 0.0264373
smoothSolver:  Solving for omega, Initial residual = 1.25812e-05, Final residual = 8.12578e-07, No Iterations 2
smoothSolver:  Solving for k, Initial residual = 0.000235817, Final residual = 1.42438e-05, No Iterations 4
ExecutionTime = 1.08 s  ClockTime = 1 s

scalarTransport execute: age
smoothSolver:  Solving for age, Initial residual = 0.00332559, Final residual = 0.000325675, No Iterations 11

Time = 85

smoothSolver:  Solving for Ux, Initial residual = 0.000657649, Final residual = 4.37247e-05, No Iterations 5
smoothSolver:  Solving for Uy, Initial residual = 0.000438554, Final residual = 2.83293e-05, No Iterations 5
GAMG:  Solving for p, Initial residual = 0.000992859, Final residual = 3.99078e-05, No Iterations 3
time step continuity errors : sum local = 9.83089e-05, global = 3.15827e-06, cumulative = 0.0264405
smoothSolver:  Solving for omega, Initial residual = 9.69535e-06, Final residual = 7.53741e-07, No Iterations 2
smoothSolver:  Solving for k, Initial residual = 0.000230361, Final residual = 1.35554e-05, No Iterations 4
ExecutionTime = 1.1 s  ClockTime = 1 s

scalarTransport execute: age
smoothSolver:  Solving for age, Initial residual = 0.00320202, Final residual = 0.000308149, No Iterations 11

Time = 86

smoothSolver:  Solving for Ux, Initial residual = 0.000666376, Final residual = 6.50108e-05, No Iterations 4
smoothSolver:  Solving for Uy, Initial residual = 0.000423081, Final residual = 2.65578e-05, No Iterations 5
GAMG:  Solving for p, Initial residual = 0.000923036, Final residual = 3.58793e-05, No Iterations 3
time step continuity errors : sum local = 8.8342e-05, global = 8.17887e-06, cumulative = 0.0264487
smoothSolver:  Solving for omega, Initial residual = 9.23546e-06, Final residual = 7.4098e-07, No Iterations 2
smoothSolver:  Solving for k, Initial residual = 0.000222262, Final residual = 1.29552e-05, No Iterations 4
ExecutionTime = 1.1 s  ClockTime = 1 s

scalarTransport execute: age
smoothSolver:  Solving for age, Initial residual = 0.00306795, Final residual = 0.000292802, No Iterations 11

Time = 87

smoothSolver:  Solving for Ux, Initial residual = 0.000597638, Final residual = 3.66636e-05, No Iterations 5
smoothSolver:  Solving for Uy, Initial residual = 0.00041491, Final residual = 4.08586e-05, No Iterations 4
GAMG:  Solving for p, Initial residual = 0.000884454, Final residual = 3.39159e-05, No Iterations 3
time step continuity errors : sum local = 8.34627e-05, global = 1.10036e-05, cumulative = 0.0264597
smoothSolver:  Solving for omega, Initial residual = 1.10934e-05, Final residual = 7.43381e-07, No Iterations 2
smoothSolver:  Solving for k, Initial residual = 0.000211276, Final residual = 1.24587e-05, No Iterations 4
ExecutionTime = 1.11 s  ClockTime = 1 s

scalarTransport execute: age
smoothSolver:  Solving for age, Initial residual = 0.00293425, Final residual = 0.000279761, No Iterations 11

Time = 88

smoothSolver:  Solving for Ux, Initial residual = 0.0017816, Final residual = 0.000136848, No Iterations 1
smoothSolver:  Solving for Uy, Initial residual = 0.00216943, Final residual = 0.000196592, No Iterations 1
GAMG:  Solving for p, Initial residual = 0.000540072, Final residual = 4.36166e-05, No Iterations 2
time step continuity errors : sum local = 0.000107279, global = 1.0664e-05, cumulative = 0.0264703
smoothSolver:  Solving for omega, Initial residual = 7.83094e-06, Final residual = 5.87517e-07, No Iterations 2
smoothSolver:  Solving for k, Initial residual = 0.000180263, Final residual = 1.11837e-05, No Iterations 4
ExecutionTime = 1.12 s  ClockTime = 1 s

scalarTransport execute: age
smoothSolver:  Solving for age, Initial residual = 0.00277323, Final residual = 0.000265595, No Iterations 11

Time = 89

smoothSolver:  Solving for Ux, Initial residual = 0.000960313, Final residual = 4.38525e-07, No Iterations 1
smoothSolver:  Solving for Uy, Initial residual = 0.510853, Final residual = 4.8804e-05, No Iterations 1
GAMG:  Solving for p, Initial residual = 0.000530722, Final residual = 4.77556e-05, No Iterations 2
time step continuity errors : sum local = 0.000117413, global = 1.09019e-05, cumulative = 0.0264812
smoothSolver:  Solving for omega, Initial residual = 2.58642e-07, Final residual = 1.73064e-08, No Iterations 2
smoothSolver:  Solving for k, Initial residual = 0.000156241, Final residual = 1.00898e-05, No Iterations 4
ExecutionTime = 1.13 s  ClockTime = 1 s

scalarTransport execute: age
smoothSolver:  Solving for age, Initial residual = 0.00262568, Final residual = 0.000249828, No Iterations 11

Time = 90

smoothSolver:  Solving for Ux, Initial residual = 0.000513553, Final residual = 3.11318e-05, No Iterations 5
smoothSolver:  Solving for Uy, Initial residual = 0.000361796, Final residual = 2.18192e-05, No Iterations 5
GAMG:  Solving for p, Initial residual = 0.000853607, Final residual = 3.02938e-05, No Iterations 3
time step continuity errors : sum local = 7.44399e-05, global = 1.0897e-05, cumulative = 0.0264921
smoothSolver:  Solving for omega, Initial residual = 8.30924e-06, Final residual = 6.03046e-07, No Iterations 2
smoothSolver:  Solving for k, Initial residual = 0.000150576, Final residual = 9.83504e-06, No Iterations 4
ExecutionTime = 1.15 s  ClockTime = 1 s

scalarTransport execute: age
smoothSolver:  Solving for age, Initial residual = 0.00253346, Final residual = 0.000234079, No Iterations 11

Time = 91

smoothSolver:  Solving for Ux, Initial residual = 0.000488684, Final residual = 4.67406e-05, No Iterations 4
smoothSolver:  Solving for Uy, Initial residual = 0.000333988, Final residual = 3.17275e-05, No Iterations 4
GAMG:  Solving for p, Initial residual = 0.000707291, Final residual = 7.0699e-05, No Iterations 2
time step continuity errors : sum local = 0.00017358, global = 1.07327e-05, cumulative = 0.0265029
smoothSolver:  Solving for omega, Initial residual = 6.54269e-06, Final residual = 5.67192e-07, No Iterations 2
smoothSolver:  Solving for k, Initial residual = 0.000144532, Final residual = 9.55338e-06, No Iterations 4
ExecutionTime = 1.16 s  ClockTime = 1 s

scalarTransport execute: age
smoothSolver:  Solving for age, Initial residual = 0.00247298, Final residual = 0.000219151, No Iterations 11

Time = 92

smoothSolver:  Solving for Ux, Initial residual = 0.000446996, Final residual = 4.38546e-05, No Iterations 4
smoothSolver:  Solving for Uy, Initial residual = 0.000317301, Final residual = 2.87579e-05, No Iterations 4
GAMG:  Solving for p, Initial residual = 0.000711209, Final residual = 6.65108e-05, No Iterations 2
time step continuity errors : sum local = 0.000163213, global = 1.25051e-05, cumulative = 0.0265154
smoothSolver:  Solving for omega, Initial residual = 7.98943e-06, Final residual = 5.69624e-07, No Iterations 2
smoothSolver:  Solving for k, Initial residual = 0.00013705, Final residual = 9.12509e-06, No Iterations 4
ExecutionTime = 1.17 s  ClockTime = 1 s

scalarTransport execute: age
smoothSolver:  Solving for age, Initial residual = 0.00239391, Final residual = 0.000238645, No Iterations 10

Time = 93

smoothSolver:  Solving for Ux, Initial residual = 0.000410291, Final residual = 4.07465e-05, No Iterations 4
smoothSolver:  Solving for Uy, Initial residual = 0.000278334, Final residual = 2.57435e-05, No Iterations 4
GAMG:  Solving for p, Initial residual = 0.00063766, Final residual = 4.96571e-05, No Iterations 2
time step continuity errors : sum local = 0.000121787, global = 1.29063e-05, cumulative = 0.0265283
smoothSolver:  Solving for omega, Initial residual = 8.43189e-06, Final residual = 5.58849e-07, No Iterations 2
smoothSolver:  Solving for k, Initial residual = 0.000127047, Final residual = 8.5862e-06, No Iterations 4
ExecutionTime = 1.18 s  ClockTime = 1 s

scalarTransport execute: age
smoothSolver:  Solving for age, Initial residual = 0.00231363, Final residual = 0.000222746, No Iterations 10

Time = 94

smoothSolver:  Solving for Ux, Initial residual = 0.00037715, Final residual = 2.26901e-05, No Iterations 5
smoothSolver:  Solving for Uy, Initial residual = 0.000248185, Final residual = 2.3325e-05, No Iterations 4
GAMG:  Solving for p, Initial residual = 0.000583385, Final residual = 3.90767e-05, No Iterations 2
time step continuity errors : sum local = 9.57893e-05, global = 1.09695e-05, cumulative = 0.0265392
smoothSolver:  Solving for omega, Initial residual = 7.08199e-06, Final residual = 4.9287e-07, No Iterations 2
smoothSolver:  Solving for k, Initial residual = 0.000117323, Final residual = 8.03586e-06, No Iterations 4
ExecutionTime = 1.19 s  ClockTime = 1 s

scalarTransport execute: age
smoothSolver:  Solving for age, Initial residual = 0.00221328, Final residual = 0.000216649, No Iterations 10

Time = 95

smoothSolver:  Solving for Ux, Initial residual = 0.000353098, Final residual = 3.49153e-05, No Iterations 4
smoothSolver:  Solving for Uy, Initial residual = 0.000235892, Final residual = 2.16546e-05, No Iterations 4
GAMG:  Solving for p, Initial residual = 0.000534884, Final residual = 3.26676e-05, No Iterations 2
time step continuity errors : sum local = 8.004e-05, global = 8.28874e-06, cumulative = 0.0265475
smoothSolver:  Solving for omega, Initial residual = 5.85656e-06, Final residual = 4.44811e-07, No Iterations 2
[...]

Time = 1977

smoothSolver:  Solving for Ux, Initial residual = 4.39912e-05, Final residual = 1.93392e-06, No Iterations 1
smoothSolver:  Solving for Uy, Initial residual = 2.50676e-05, Final residual = 1.13986e-06, No Iterations 1
GAMG:  Solving for p, Initial residual = 2.39835e-05, Final residual = 1.22679e-06, No Iterations 3
time step continuity errors : sum local = 3.00028e-06, global = 2.6749e-09, cumulative = 0.0266258
smoothSolver:  Solving for omega, Initial residual = 9.14544e-06, Final residual = 6.82354e-07, No Iterations 1
smoothSolver:  Solving for k, Initial residual = 4.35842e-07, Final residual = 4.21278e-08, No Iterations 1
ExecutionTime = 22.01 s  ClockTime = 22 s

scalarTransport execute: age
smoothSolver:  Solving for age, Initial residual = 4.58919e-05, Final residual = 4.26008e-06, No Iterations 11

Time = 1978

smoothSolver:  Solving for Ux, Initial residual = 1.87233e-05, Final residual = 1.20464e-06, No Iterations 1
smoothSolver:  Solving for Uy, Initial residual = 5.25586e-06, Final residual = 3.95619e-07, No Iterations 2
GAMG:  Solving for p, Initial residual = 2.20253e-05, Final residual = 2.07452e-06, No Iterations 2
time step continuity errors : sum local = 5.07345e-06, global = 6.86138e-09, cumulative = 0.0266258
smoothSolver:  Solving for omega, Initial residual = 6.9904e-06, Final residual = 5.3537e-07, No Iterations 1
smoothSolver:  Solving for k, Initial residual = 3.39579e-07, Final residual = 1.75522e-08, No Iterations 2
ExecutionTime = 22.03 s  ClockTime = 22 s

scalarTransport execute: age
smoothSolver:  Solving for age, Initial residual = 4.32707e-05, Final residual = 4.2715e-06, No Iterations 10

Time = 1979

smoothSolver:  Solving for Ux, Initial residual = 1.05379e-05, Final residual = 4.23745e-07, No Iterations 2
smoothSolver:  Solving for Uy, Initial residual = 4.79561e-06, Final residual = 2.8832e-07, No Iterations 2
GAMG:  Solving for p, Initial residual = 1.94377e-05, Final residual = 9.74079e-07, No Iterations 3
time step continuity errors : sum local = 2.38224e-06, global = 1.13269e-08, cumulative = 0.0266258
smoothSolver:  Solving for omega, Initial residual = 4.94658e-06, Final residual = 3.39356e-07, No Iterations 1
smoothSolver:  Solving for k, Initial residual = 2.31891e-07, Final residual = 1.58448e-08, No Iterations 2
ExecutionTime = 22.04 s  ClockTime = 22 s

scalarTransport execute: age
smoothSolver:  Solving for age, Initial residual = 4.36155e-05, Final residual = 3.98107e-06, No Iterations 11

Time = 1980

smoothSolver:  Solving for Ux, Initial residual = 1.83639e-05, Final residual = 1.06671e-06, No Iterations 1
smoothSolver:  Solving for Uy, Initial residual = 2.40357e-05, Final residual = 9.86195e-07, No Iterations 1
GAMG:  Solving for p, Initial residual = 2.33539e-05, Final residual = 2.29033e-06, No Iterations 2
time step continuity errors : sum local = 5.60125e-06, global = 1.42606e-08, cumulative = 0.0266258
smoothSolver:  Solving for omega, Initial residual = 7.54407e-06, Final residual = 5.02933e-07, No Iterations 1
smoothSolver:  Solving for k, Initial residual = 2.63047e-07, Final residual = 1.49787e-08, No Iterations 2
ExecutionTime = 22.05 s  ClockTime = 22 s

scalarTransport execute: age
smoothSolver:  Solving for age, Initial residual = 4.07572e-05, Final residual = 3.99801e-06, No Iterations 11

Time = 1981

smoothSolver:  Solving for Ux, Initial residual = 6.22819e-06, Final residual = 5.25809e-07, No Iterations 2
smoothSolver:  Solving for Uy, Initial residual = 5.00383e-06, Final residual = 3.13842e-07, No Iterations 2
GAMG:  Solving for p, Initial residual = 1.73663e-05, Final residual = 7.82291e-07, No Iterations 3
time step continuity errors : sum local = 1.9132e-06, global = 1.78068e-08, cumulative = 0.0266258
smoothSolver:  Solving for omega, Initial residual = 8.18784e-06, Final residual = 5.22852e-07, No Iterations 1
smoothSolver:  Solving for k, Initial residual = 2.16747e-07, Final residual = 1.33302e-08, No Iterations 2
ExecutionTime = 22.06 s  ClockTime = 22 s

scalarTransport execute: age
smoothSolver:  Solving for age, Initial residual = 3.96969e-05, Final residual = 3.95701e-06, No Iterations 11

Time = 1982

smoothSolver:  Solving for Ux, Initial residual = 0.00309653, Final residual = 2.3197e-08, No Iterations 1
smoothSolver:  Solving for Uy, Initial residual = 0.00734368, Final residual = 8.78494e-07, No Iterations 1
GAMG:  Solving for p, Initial residual = 2.25746e-05, Final residual = 9.60335e-07, No Iterations 3
time step continuity errors : sum local = 2.3486e-06, global = 2.0769e-08, cumulative = 0.0266259
smoothSolver:  Solving for omega, Initial residual = 2.5812e-06, Final residual = 1.88747e-07, No Iterations 1
smoothSolver:  Solving for k, Initial residual = 2.79565e-07, Final residual = 1.56886e-08, No Iterations 2
ExecutionTime = 22.07 s  ClockTime = 22 s

scalarTransport execute: age
smoothSolver:  Solving for age, Initial residual = 4.31683e-05, Final residual = 4.09124e-06, No Iterations 11

Time = 1983

smoothSolver:  Solving for Ux, Initial residual = 7.36281e-06, Final residual = 6.65448e-07, No Iterations 2
smoothSolver:  Solving for Uy, Initial residual = 5.69099e-06, Final residual = 4.64827e-07, No Iterations 2
GAMG:  Solving for p, Initial residual = 1.93555e-05, Final residual = 8.63865e-07, No Iterations 3
time step continuity errors : sum local = 2.1127e-06, global = 2.0156e-08, cumulative = 0.0266259
smoothSolver:  Solving for omega, Initial residual = 8.49228e-06, Final residual = 6.31599e-07, No Iterations 1
smoothSolver:  Solving for k, Initial residual = 2.36148e-07, Final residual = 1.33276e-08, No Iterations 2
ExecutionTime = 22.08 s  ClockTime = 22 s

scalarTransport execute: age
smoothSolver:  Solving for age, Initial residual = 4.13172e-05, Final residual = 3.88873e-06, No Iterations 11

Time = 1984

smoothSolver:  Solving for Ux, Initial residual = 0.000436307, Final residual = 1.20515e-06, No Iterations 1
smoothSolver:  Solving for Uy, Initial residual = 3.56037e-05, Final residual = 7.57381e-07, No Iterations 1
GAMG:  Solving for p, Initial residual = 2.36882e-05, Final residual = 2.34135e-06, No Iterations 2
time step continuity errors : sum local = 5.72603e-06, global = 2.11765e-08, cumulative = 0.0266259
smoothSolver:  Solving for omega, Initial residual = 8.59676e-06, Final residual = 6.88907e-07, No Iterations 1
smoothSolver:  Solving for k, Initial residual = 2.81483e-07, Final residual = 1.28034e-08, No Iterations 2
ExecutionTime = 22.09 s  ClockTime = 22 s

scalarTransport execute: age
smoothSolver:  Solving for age, Initial residual = 4.13998e-05, Final residual = 3.89232e-06, No Iterations 11

Time = 1985

smoothSolver:  Solving for Ux, Initial residual = 3.29774e-05, Final residual = 1.62036e-06, No Iterations 1
smoothSolver:  Solving for Uy, Initial residual = 2.1371e-05, Final residual = 1.11759e-06, No Iterations 1
GAMG:  Solving for p, Initial residual = 2.30289e-05, Final residual = 1.01084e-06, No Iterations 3
time step continuity errors : sum local = 2.47215e-06, global = 1.91988e-08, cumulative = 0.0266259
smoothSolver:  Solving for omega, Initial residual = 1.0148e-05, Final residual = 7.24707e-07, No Iterations 1
smoothSolver:  Solving for k, Initial residual = 3.36771e-07, Final residual = 3.0749e-08, No Iterations 1
ExecutionTime = 22.1 s  ClockTime = 22 s

scalarTransport execute: age
smoothSolver:  Solving for age, Initial residual = 4.19007e-05, Final residual = 4.12419e-06, No Iterations 11

Time = 1986

smoothSolver:  Solving for Ux, Initial residual = 0.000777237, Final residual = 1.0319e-06, No Iterations 1
smoothSolver:  Solving for Uy, Initial residual = 0.000166406, Final residual = 1.1335e-06, No Iterations 1
GAMG:  Solving for p, Initial residual = 3.00722e-05, Final residual = 2.7607e-06, No Iterations 2
time step continuity errors : sum local = 6.75161e-06, global = 2.03914e-08, cumulative = 0.0266259
smoothSolver:  Solving for omega, Initial residual = 7.45006e-06, Final residual = 5.70631e-07, No Iterations 1
smoothSolver:  Solving for k, Initial residual = 4.66379e-07, Final residual = 2.7587e-08, No Iterations 1
ExecutionTime = 22.11 s  ClockTime = 22 s

scalarTransport execute: age
smoothSolver:  Solving for age, Initial residual = 4.09984e-05, Final residual = 3.77068e-06, No Iterations 11

Time = 1987

smoothSolver:  Solving for Ux, Initial residual = 7.70131e-06, Final residual = 5.54265e-07, No Iterations 2
smoothSolver:  Solving for Uy, Initial residual = 6.71873e-06, Final residual = 3.72421e-07, No Iterations 2
GAMG:  Solving for p, Initial residual = 1.94492e-05, Final residual = 9.36017e-07, No Iterations 3
time step continuity errors : sum local = 2.28915e-06, global = 1.65779e-08, cumulative = 0.026626
smoothSolver:  Solving for omega, Initial residual = 8.03822e-06, Final residual = 3.74091e-07, No Iterations 1
smoothSolver:  Solving for k, Initial residual = 3.42679e-07, Final residual = 2.71156e-08, No Iterations 1
ExecutionTime = 22.12 s  ClockTime = 22 s

scalarTransport execute: age
smoothSolver:  Solving for age, Initial residual = 4.14273e-05, Final residual = 4.11046e-06, No Iterations 11

Time = 1988

smoothSolver:  Solving for Ux, Initial residual = 4.4678e-06, Final residual = 3.42918e-07, No Iterations 2
smoothSolver:  Solving for Uy, Initial residual = 3.62619e-06, Final residual = 3.13187e-07, No Iterations 2
GAMG:  Solving for p, Initial residual = 1.56585e-05, Final residual = 9.90681e-07, No Iterations 2
time step continuity errors : sum local = 2.42282e-06, global = 1.41587e-08, cumulative = 0.026626
smoothSolver:  Solving for omega, Initial residual = 4.09944e-06, Final residual = 2.4777e-07, No Iterations 1
smoothSolver:  Solving for k, Initial residual = 2.0413e-07, Final residual = 1.31598e-08, No Iterations 2
ExecutionTime = 22.14 s  ClockTime = 22 s

scalarTransport execute: age
smoothSolver:  Solving for age, Initial residual = 4.08842e-05, Final residual = 4.08779e-06, No Iterations 11

Time = 1989

smoothSolver:  Solving for Ux, Initial residual = 2.06574e-05, Final residual = 1.01148e-06, No Iterations 1
smoothSolver:  Solving for Uy, Initial residual = 1.25599e-05, Final residual = 8.72641e-07, No Iterations 1
GAMG:  Solving for p, Initial residual = 2.33598e-05, Final residual = 9.34283e-07, No Iterations 3
time step continuity errors : sum local = 2.28489e-06, global = 1.53077e-08, cumulative = 0.026626
smoothSolver:  Solving for omega, Initial residual = 4.68919e-06, Final residual = 2.76997e-07, No Iterations 1
smoothSolver:  Solving for k, Initial residual = 2.71222e-07, Final residual = 1.49081e-08, No Iterations 2
ExecutionTime = 22.15 s  ClockTime = 22 s

scalarTransport execute: age
smoothSolver:  Solving for age, Initial residual = 4.29037e-05, Final residual = 4.20448e-06, No Iterations 11

Time = 1990

smoothSolver:  Solving for Ux, Initial residual = 7.85763e-06, Final residual = 5.49522e-07, No Iterations 2
smoothSolver:  Solving for Uy, Initial residual = 6.4216e-06, Final residual = 4.2497e-07, No Iterations 2
GAMG:  Solving for p, Initial residual = 2.38449e-05, Final residual = 1.85563e-06, No Iterations 2
time step continuity errors : sum local = 4.53817e-06, global = 1.34738e-08, cumulative = 0.026626
smoothSolver:  Solving for omega, Initial residual = 1.37732e-05, Final residual = 7.46163e-07, No Iterations 1
smoothSolver:  Solving for k, Initial residual = 2.4238e-07, Final residual = 1.66335e-08, No Iterations 2
ExecutionTime = 22.16 s  ClockTime = 22 s

scalarTransport execute: age
smoothSolver:  Solving for age, Initial residual = 4.42387e-05, Final residual = 4.12082e-06, No Iterations 11

Time = 1991

smoothSolver:  Solving for Ux, Initial residual = 1.08336e-05, Final residual = 4.56476e-07, No Iterations 2
smoothSolver:  Solving for Uy, Initial residual = 4.24729e-06, Final residual = 3.34846e-07, No Iterations 2
GAMG:  Solving for p, Initial residual = 2.21727e-05, Final residual = 8.8521e-07, No Iterations 3
time step continuity errors : sum local = 2.16487e-06, global = 5.83648e-09, cumulative = 0.026626
smoothSolver:  Solving for omega, Initial residual = 1.14271e-05, Final residual = 6.88928e-07, No Iterations 1
smoothSolver:  Solving for k, Initial residual = 2.0224e-07, Final residual = 1.43776e-08, No Iterations 2
ExecutionTime = 22.17 s  ClockTime = 22 s

scalarTransport execute: age
smoothSolver:  Solving for age, Initial residual = 4.63991e-05, Final residual = 4.55614e-06, No Iterations 11

Time = 1992

smoothSolver:  Solving for Ux, Initial residual = 5.70107e-06, Final residual = 4.44368e-07, No Iterations 2
smoothSolver:  Solving for Uy, Initial residual = 3.95239e-06, Final residual = 3.40596e-07, No Iterations 2
GAMG:  Solving for p, Initial residual = 1.774e-05, Final residual = 1.75579e-06, No Iterations 2
time step continuity errors : sum local = 4.294e-06, global = -3.82276e-10, cumulative = 0.026626
smoothSolver:  Solving for omega, Initial residual = 8.99945e-06, Final residual = 5.27946e-07, No Iterations 1
smoothSolver:  Solving for k, Initial residual = 1.65671e-07, Final residual = 1.44334e-08, No Iterations 2
ExecutionTime = 22.18 s  ClockTime = 22 s

scalarTransport execute: age
smoothSolver:  Solving for age, Initial residual = 4.39128e-05, Final residual = 4.36614e-06, No Iterations 11

Time = 1993

smoothSolver:  Solving for Ux, Initial residual = 2.88053e-05, Final residual = 1.17515e-06, No Iterations 1
smoothSolver:  Solving for Uy, Initial residual = 8.90122e-06, Final residual = 8.12664e-07, No Iterations 1
GAMG:  Solving for p, Initial residual = 2.52911e-05, Final residual = 2.06688e-06, No Iterations 2
time step continuity errors : sum local = 5.05477e-06, global = -1.66028e-09, cumulative = 0.026626
smoothSolver:  Solving for omega, Initial residual = 5.32623e-06, Final residual = 3.26656e-07, No Iterations 1
smoothSolver:  Solving for k, Initial residual = 2.37341e-07, Final residual = 1.39432e-08, No Iterations 2
ExecutionTime = 22.19 s  ClockTime = 22 s

scalarTransport execute: age
smoothSolver:  Solving for age, Initial residual = 4.57098e-05, Final residual = 4.44943e-06, No Iterations 11

Time = 1994

smoothSolver:  Solving for Ux, Initial residual = 9.75287e-06, Final residual = 4.19894e-07, No Iterations 2
smoothSolver:  Solving for Uy, Initial residual = 5.4953e-06, Final residual = 3.42763e-07, No Iterations 2
GAMG:  Solving for p, Initial residual = 2.41255e-05, Final residual = 2.06672e-06, No Iterations 2
time step continuity errors : sum local = 5.05436e-06, global = -5.58116e-09, cumulative = 0.026626
smoothSolver:  Solving for omega, Initial residual = 8.13683e-06, Final residual = 4.39177e-07, No Iterations 1
smoothSolver:  Solving for k, Initial residual = 2.15213e-07, Final residual = 1.45513e-08, No Iterations 2
ExecutionTime = 22.2 s  ClockTime = 22 s

scalarTransport execute: age
smoothSolver:  Solving for age, Initial residual = 4.51901e-05, Final residual = 4.19758e-06, No Iterations 11

Time = 1995

smoothSolver:  Solving for Ux, Initial residual = 7.18679e-06, Final residual = 3.2303e-07, No Iterations 2
smoothSolver:  Solving for Uy, Initial residual = 4.66408e-06, Final residual = 2.92536e-07, No Iterations 2
GAMG:  Solving for p, Initial residual = 1.83579e-05, Final residual = 1.26405e-06, No Iterations 2
time step continuity errors : sum local = 3.09135e-06, global = -8.50956e-09, cumulative = 0.026626
smoothSolver:  Solving for omega, Initial residual = 8.38442e-06, Final residual = 4.3775e-07, No Iterations 1
smoothSolver:  Solving for k, Initial residual = 1.53585e-07, Final residual = 8.03637e-09, No Iterations 3
ExecutionTime = 22.21 s  ClockTime = 22 s

scalarTransport execute: age
smoothSolver:  Solving for age, Initial residual = 4.10494e-05, Final residual = 3.83591e-06, No Iterations 11

Time = 1996

smoothSolver:  Solving for Ux, Initial residual = 0.00280601, Final residual = 2.31591e-08, No Iterations 1
smoothSolver:  Solving for Uy, Initial residual = 0.00544839, Final residual = 6.42909e-07, No Iterations 1
GAMG:  Solving for p, Initial residual = 2.6514e-05, Final residual = 2.38544e-06, No Iterations 2
time step continuity errors : sum local = 5.83386e-06, global = -1.19744e-08, cumulative = 0.026626
smoothSolver:  Solving for omega, Initial residual = 3.59871e-06, Final residual = 2.00206e-07, No Iterations 1
smoothSolver:  Solving for k, Initial residual = 3.34257e-07, Final residual = 1.70281e-08, No Iterations 2
ExecutionTime = 22.22 s  ClockTime = 22 s

scalarTransport execute: age
smoothSolver:  Solving for age, Initial residual = 4.3942e-05, Final residual = 4.13201e-06, No Iterations 11

Time = 1997

smoothSolver:  Solving for Ux, Initial residual = 2.37558e-05, Final residual = 1.38303e-06, No Iterations 1
smoothSolver:  Solving for Uy, Initial residual = 1.07852e-05, Final residual = 4.4851e-07, No Iterations 2
GAMG:  Solving for p, Initial residual = 2.61596e-05, Final residual = 2.11879e-06, No Iterations 2
time step continuity errors : sum local = 5.18179e-06, global = -1.40317e-08, cumulative = 0.026626
smoothSolver:  Solving for omega, Initial residual = 9.57211e-06, Final residual = 5.39168e-07, No Iterations 1
smoothSolver:  Solving for k, Initial residual = 3.28544e-07, Final residual = 1.73913e-08, No Iterations 2
ExecutionTime = 22.23 s  ClockTime = 22 s

scalarTransport execute: age
smoothSolver:  Solving for age, Initial residual = 4.47217e-05, Final residual = 3.98129e-06, No Iterations 11

Time = 1998

smoothSolver:  Solving for Ux, Initial residual = 7.67916e-06, Final residual = 3.58745e-07, No Iterations 2
smoothSolver:  Solving for Uy, Initial residual = 6.01621e-06, Final residual = 3.33932e-07, No Iterations 2
GAMG:  Solving for p, Initial residual = 2.05577e-05, Final residual = 1.24363e-06, No Iterations 2
time step continuity errors : sum local = 3.04145e-06, global = -1.70038e-08, cumulative = 0.0266259
smoothSolver:  Solving for omega, Initial residual = 3.96515e-06, Final residual = 2.14185e-07, No Iterations 1
smoothSolver:  Solving for k, Initial residual = 2.08958e-07, Final residual = 1.85708e-08, No Iterations 2
ExecutionTime = 22.25 s  ClockTime = 23 s

scalarTransport execute: age
smoothSolver:  Solving for age, Initial residual = 4.124e-05, Final residual = 3.77105e-06, No Iterations 11

Time = 1999

smoothSolver:  Solving for Ux, Initial residual = 8.17003e-06, Final residual = 3.35509e-07, No Iterations 2
smoothSolver:  Solving for Uy, Initial residual = 4.00107e-06, Final residual = 2.67525e-07, No Iterations 2
GAMG:  Solving for p, Initial residual = 1.79471e-05, Final residual = 1.58674e-06, No Iterations 2
time step continuity errors : sum local = 3.88053e-06, global = -2.07109e-08, cumulative = 0.0266259
smoothSolver:  Solving for omega, Initial residual = 3.21049e-06, Final residual = 1.39099e-07, No Iterations 1
smoothSolver:  Solving for k, Initial residual = 2.00343e-07, Final residual = 1.95354e-08, No Iterations 2
ExecutionTime = 22.26 s  ClockTime = 23 s

scalarTransport execute: age
smoothSolver:  Solving for age, Initial residual = 4.08425e-05, Final residual = 3.92741e-06, No Iterations 11

Time = 2000

smoothSolver:  Solving for Ux, Initial residual = 0.0004031, Final residual = 1.09939e-06, No Iterations 1
smoothSolver:  Solving for Uy, Initial residual = 2.9175e-05, Final residual = 6.75973e-07, No Iterations 1
GAMG:  Solving for p, Initial residual = 2.26025e-05, Final residual = 1.15182e-06, No Iterations 3
time step continuity errors : sum local = 2.81688e-06, global = -2.09689e-08, cumulative = 0.0266259
smoothSolver:  Solving for omega, Initial residual = 5.9397e-06, Final residual = 3.95593e-07, No Iterations 1
smoothSolver:  Solving for k, Initial residual = 3.60319e-07, Final residual = 2.02631e-08, No Iterations 2
ExecutionTime = 22.29 s  ClockTime = 23 s

scalarTransport execute: age
smoothSolver:  Solving for age, Initial residual = 4.36286e-05, Final residual = 4.04892e-06, No Iterations 11

End

