/*---------------------------------------------------------------------------*\
| =========                 |                                                 |
| \\      /  F ield         | OpenFOAM: The Open Source CFD Toolbox           |
|  \\    /   O peration     | Version:  v2012                                 |
|   \\  /    A nd           | Website:  www.openfoam.com                      |
|    \\/     M anipulation  |                                                 |
\*---------------------------------------------------------------------------*/
Build  : _7bdb509494-20201222 OPENFOAM=2012
Arch   : "LSB;label=32;scalar=64"
Exec   : simpleFoam
Date   : Feb 22 2023
Time   : 17:13:16
Host   : johnsDesktop
PID    : 5282
I/O    : uncollated
Case   : /home/john/of_runs/cases/0_1_4-00540_9
nProcs : 1
trapFpe: Floating point exception trapping enabled (FOAM_SIGFPE).
fileModificationChecking : Monitoring run-time modified files using timeStampMaster (fileModificationSkew 5, maxFileModificationPolls 20)
allowSystemOperations : Allowing user-supplied system call operations

// * * * * * * * * * * * * * * * * * * * * * * * * * * * * * * * * * * * * * //
Create time

Create mesh for time = 0


SIMPLE: convergence criteria
    field p	 tolerance 1e-06
    field U	 tolerance 1e-06
    field "(k|epsilon|omega|f|v2|age)"	 tolerance 1e-05

Reading field p

Reading field U

Reading/calculating face flux field phi

Selecting incompressible transport model Newtonian
Selecting turbulence model type RAS
Selecting RAS turbulence model kOmegaSST
Selecting patchDistMethod meshWave
RAS
{
    RASModel        kOmegaSST;
    turbulence      on;
    printCoeffs     on;
    alphaK1         0.85;
    alphaK2         1;
    alphaOmega1     0.5;
    alphaOmega2     0.856;
    gamma1          0.555556;
    gamma2          0.44;
    beta1           0.075;
    beta2           0.0828;
    betaStar        0.09;
    a1              0.31;
    b1              1;
    c1              10;
    F3              false;
    decayControl    false;
    kInf            0;
    omegaInf        0;
}

No MRF models present

No finite volume options present

Starting time loop

Selecting finite volume options type scalarSemiImplicitSource
    Source: unitySource
    - selecting all cells
    - selected 6108 cell(s) with volume 0.03195
Time = 1

smoothSolver:  Solving for Ux, Initial residual = 0, Final residual = 0, No Iterations 0
smoothSolver:  Solving for Uy, Initial residual = 1, Final residual = 0.08675, No Iterations 2
GAMG:  Solving for p, Initial residual = 1, Final residual = 0.0639639, No Iterations 11
time step continuity errors : sum local = 0.004004, global = -0.000468205, cumulative = -0.000468205
smoothSolver:  Solving for omega, Initial residual = 0.295328, Final residual = 0.0125541, No Iterations 3
smoothSolver:  Solving for k, Initial residual = 1, Final residual = 0.0816171, No Iterations 3
ExecutionTime = 0.05 s  ClockTime = 0 s

scalarTransport execute: age
smoothSolver:  Solving for age, Initial residual = 1, Final residual = 0.0998403, No Iterations 3

Time = 2

smoothSolver:  Solving for Ux, Initial residual = 0.576278, Final residual = 0.0499384, No Iterations 6
smoothSolver:  Solving for Uy, Initial residual = 0.278071, Final residual = 0.0202106, No Iterations 6
GAMG:  Solving for p, Initial residual = 0.0444066, Final residual = 0.00397554, No Iterations 4
time step continuity errors : sum local = 0.0439786, global = 0.00551939, cumulative = 0.00505119
smoothSolver:  Solving for omega, Initial residual = 0.263607, Final residual = 0.013855, No Iterations 4
smoothSolver:  Solving for k, Initial residual = 0.612447, Final residual = 0.0591144, No Iterations 4
ExecutionTime = 0.07 s  ClockTime = 0 s

scalarTransport execute: age
smoothSolver:  Solving for age, Initial residual = 0.578631, Final residual = 0.0503536, No Iterations 19

Time = 3

smoothSolver:  Solving for Ux, Initial residual = 0.243281, Final residual = 0.0184931, No Iterations 6
smoothSolver:  Solving for Uy, Initial residual = 0.098128, Final residual = 0.00914681, No Iterations 5
GAMG:  Solving for p, Initial residual = 0.054469, Final residual = 0.00340638, No Iterations 5
time step continuity errors : sum local = 0.0166447, global = 0.00201381, cumulative = 0.007065
smoothSolver:  Solving for omega, Initial residual = 0.240818, Final residual = 0.0139604, No Iterations 5
smoothSolver:  Solving for k, Initial residual = 0.516972, Final residual = 0.0405115, No Iterations 5
ExecutionTime = 0.08 s  ClockTime = 0 s

scalarTransport execute: age
smoothSolver:  Solving for age, Initial residual = 0.19811, Final residual = 0.0192409, No Iterations 14

Time = 4

smoothSolver:  Solving for Ux, Initial residual = 0.11963, Final residual = 0.0105088, No Iterations 3
smoothSolver:  Solving for Uy, Initial residual = 0.0509331, Final residual = 0.00368068, No Iterations 5
GAMG:  Solving for p, Initial residual = 0.0856644, Final residual = 0.00647631, No Iterations 3
time step continuity errors : sum local = 0.0154733, global = 0.00102952, cumulative = 0.00809451
smoothSolver:  Solving for omega, Initial residual = 0.136256, Final residual = 0.00981689, No Iterations 5
smoothSolver:  Solving for k, Initial residual = 0.447417, Final residual = 0.0391762, No Iterations 5
ExecutionTime = 0.09 s  ClockTime = 0 s

scalarTransport execute: age
smoothSolver:  Solving for age, Initial residual = 0.161153, Final residual = 0.0137613, No Iterations 8

Time = 5

smoothSolver:  Solving for Ux, Initial residual = 0.0957175, Final residual = 0.00889171, No Iterations 5
smoothSolver:  Solving for Uy, Initial residual = 0.0335751, Final residual = 0.00261563, No Iterations 5
GAMG:  Solving for p, Initial residual = 0.0825376, Final residual = 0.00349684, No Iterations 2
time step continuity errors : sum local = 0.00694887, global = 0.000933882, cumulative = 0.0090284
smoothSolver:  Solving for omega, Initial residual = 0.0953732, Final residual = 0.00752019, No Iterations 5
smoothSolver:  Solving for k, Initial residual = 0.359672, Final residual = 0.0337031, No Iterations 5
ExecutionTime = 0.1 s  ClockTime = 0 s

scalarTransport execute: age
smoothSolver:  Solving for age, Initial residual = 0.149767, Final residual = 0.0131809, No Iterations 4

Time = 6

smoothSolver:  Solving for Ux, Initial residual = 0.0783343, Final residual = 0.00613847, No Iterations 6
smoothSolver:  Solving for Uy, Initial residual = 0.026848, Final residual = 0.00223838, No Iterations 5
GAMG:  Solving for p, Initial residual = 0.0646717, Final residual = 0.00435743, No Iterations 2
time step continuity errors : sum local = 0.00889229, global = 0.000237097, cumulative = 0.00926549
smoothSolver:  Solving for omega, Initial residual = 0.0775752, Final residual = 0.00646108, No Iterations 5
smoothSolver:  Solving for k, Initial residual = 0.287362, Final residual = 0.0284927, No Iterations 5
ExecutionTime = 0.12 s  ClockTime = 0 s

scalarTransport execute: age
smoothSolver:  Solving for age, Initial residual = 0.126947, Final residual = 0.009455, No Iterations 5

Time = 7

smoothSolver:  Solving for Ux, Initial residual = 0.0688834, Final residual = 0.00548595, No Iterations 6
smoothSolver:  Solving for Uy, Initial residual = 0.022744, Final residual = 0.00204613, No Iterations 5
GAMG:  Solving for p, Initial residual = 0.0526878, Final residual = 0.00422481, No Iterations 3
time step continuity errors : sum local = 0.00877929, global = -0.0006709, cumulative = 0.00859459
smoothSolver:  Solving for omega, Initial residual = 0.0591886, Final residual = 0.00527669, No Iterations 5
smoothSolver:  Solving for k, Initial residual = 0.238071, Final residual = 0.0155918, No Iterations 6
ExecutionTime = 0.13 s  ClockTime = 0 s

scalarTransport execute: age
smoothSolver:  Solving for age, Initial residual = 0.118311, Final residual = 0.0117578, No Iterations 3

Time = 8

smoothSolver:  Solving for Ux, Initial residual = 0.0447462, Final residual = 0.00404119, No Iterations 5
smoothSolver:  Solving for Uy, Initial residual = 0.0208801, Final residual = 0.00195182, No Iterations 5
GAMG:  Solving for p, Initial residual = 0.0418357, Final residual = 0.00200861, No Iterations 3
time step continuity errors : sum local = 0.00471493, global = -0.000463618, cumulative = 0.00813098
smoothSolver:  Solving for omega, Initial residual = 0.0482325, Final residual = 0.00443753, No Iterations 5
smoothSolver:  Solving for k, Initial residual = 0.202877, Final residual = 0.0137298, No Iterations 6
ExecutionTime = 0.14 s  ClockTime = 0 s

scalarTransport execute: age
smoothSolver:  Solving for age, Initial residual = 0.108287, Final residual = 0.00956368, No Iterations 3

Time = 9

smoothSolver:  Solving for Ux, Initial residual = 0.0358024, Final residual = 0.00335121, No Iterations 5
smoothSolver:  Solving for Uy, Initial residual = 0.0180141, Final residual = 0.00163703, No Iterations 5
GAMG:  Solving for p, Initial residual = 0.0335983, Final residual = 0.00214184, No Iterations 2
time step continuity errors : sum local = 0.00544562, global = -0.000560119, cumulative = 0.00757086
smoothSolver:  Solving for omega, Initial residual = 0.0405818, Final residual = 0.0038235, No Iterations 5
smoothSolver:  Solving for k, Initial residual = 0.175806, Final residual = 0.0122407, No Iterations 6
ExecutionTime = 0.15 s  ClockTime = 0 s

scalarTransport execute: age
smoothSolver:  Solving for age, Initial residual = 0.0986056, Final residual = 0.00834563, No Iterations 3

Time = 10

smoothSolver:  Solving for Ux, Initial residual = 0.0336013, Final residual = 0.00224878, No Iterations 6
smoothSolver:  Solving for Uy, Initial residual = 0.0184377, Final residual = 0.00167556, No Iterations 5
GAMG:  Solving for p, Initial residual = 0.028999, Final residual = 0.00110079, No Iterations 2
time step continuity errors : sum local = 0.00290566, global = -0.000497693, cumulative = 0.00707316
smoothSolver:  Solving for omega, Initial residual = 0.0338455, Final residual = 0.00328448, No Iterations 5
smoothSolver:  Solving for k, Initial residual = 0.154932, Final residual = 0.0110274, No Iterations 6
ExecutionTime = 0.16 s  ClockTime = 0 s

scalarTransport execute: age
smoothSolver:  Solving for age, Initial residual = 0.0948921, Final residual = 0.00602347, No Iterations 3

Time = 11

smoothSolver:  Solving for Ux, Initial residual = 0.0311811, Final residual = 0.00215132, No Iterations 6
smoothSolver:  Solving for Uy, Initial residual = 0.0165932, Final residual = 0.0015464, No Iterations 5
GAMG:  Solving for p, Initial residual = 0.0245541, Final residual = 0.000910378, No Iterations 2
time step continuity errors : sum local = 0.00243757, global = -0.000390056, cumulative = 0.00668311
smoothSolver:  Solving for omega, Initial residual = 0.0288498, Final residual = 0.00284951, No Iterations 5
smoothSolver:  Solving for k, Initial residual = 0.13819, Final residual = 0.010018, No Iterations 6
ExecutionTime = 0.18 s  ClockTime = 0 s

scalarTransport execute: age
smoothSolver:  Solving for age, Initial residual = 0.086035, Final residual = 0.00428478, No Iterations 3

Time = 12

smoothSolver:  Solving for Ux, Initial residual = 0.0298537, Final residual = 0.00209053, No Iterations 6
smoothSolver:  Solving for Uy, Initial residual = 0.0160343, Final residual = 0.00154828, No Iterations 5
GAMG:  Solving for p, Initial residual = 0.0215254, Final residual = 0.000920933, No Iterations 2
time step continuity errors : sum local = 0.002495, global = -0.000279442, cumulative = 0.00640367
smoothSolver:  Solving for omega, Initial residual = 0.0247724, Final residual = 0.00158771, No Iterations 6
smoothSolver:  Solving for k, Initial residual = 0.124163, Final residual = 0.00914656, No Iterations 6
ExecutionTime = 0.19 s  ClockTime = 0 s

scalarTransport execute: age
smoothSolver:  Solving for age, Initial residual = 0.0771478, Final residual = 0.00713118, No Iterations 2

Time = 13

smoothSolver:  Solving for Ux, Initial residual = 0.0287318, Final residual = 0.00202632, No Iterations 6
smoothSolver:  Solving for Uy, Initial residual = 0.0158007, Final residual = 0.00104134, No Iterations 6
GAMG:  Solving for p, Initial residual = 0.0199215, Final residual = 0.000949934, No Iterations 2
time step continuity errors : sum local = 0.00259104, global = -0.000180308, cumulative = 0.00622336
smoothSolver:  Solving for omega, Initial residual = 0.0212748, Final residual = 0.00138766, No Iterations 6
smoothSolver:  Solving for k, Initial residual = 0.112355, Final residual = 0.00839374, No Iterations 6
ExecutionTime = 0.2 s  ClockTime = 0 s

scalarTransport execute: age
smoothSolver:  Solving for age, Initial residual = 0.0692505, Final residual = 0.00674071, No Iterations 2

Time = 14

smoothSolver:  Solving for Ux, Initial residual = 0.0277704, Final residual = 0.00197756, No Iterations 6
smoothSolver:  Solving for Uy, Initial residual = 0.015431, Final residual = 0.00104296, No Iterations 6
GAMG:  Solving for p, Initial residual = 0.0187881, Final residual = 0.000930984, No Iterations 2
time step continuity errors : sum local = 0.00254856, global = -7.49822e-05, cumulative = 0.00614838
smoothSolver:  Solving for omega, Initial residual = 0.0184599, Final residual = 0.00122168, No Iterations 6
smoothSolver:  Solving for k, Initial residual = 0.102478, Final residual = 0.00774638, No Iterations 6
ExecutionTime = 0.21 s  ClockTime = 0 s

scalarTransport execute: age
smoothSolver:  Solving for age, Initial residual = 0.0624981, Final residual = 0.00327295, No Iterations 3

Time = 15

smoothSolver:  Solving for Ux, Initial residual = 0.0269803, Final residual = 0.00193226, No Iterations 6
smoothSolver:  Solving for Uy, Initial residual = 0.0152416, Final residual = 0.00104412, No Iterations 6
GAMG:  Solving for p, Initial residual = 0.0177824, Final residual = 0.000867093, No Iterations 2
time step continuity errors : sum local = 0.00237948, global = 2.24884e-05, cumulative = 0.00617086
smoothSolver:  Solving for omega, Initial residual = 0.0161867, Final residual = 0.0010835, No Iterations 6
smoothSolver:  Solving for k, Initial residual = 0.0940655, Final residual = 0.00718181, No Iterations 6
ExecutionTime = 0.22 s  ClockTime = 0 s

scalarTransport execute: age
smoothSolver:  Solving for age, Initial residual = 0.0553448, Final residual = 0.0052843, No Iterations 2

Time = 16

smoothSolver:  Solving for Ux, Initial residual = 0.0261898, Final residual = 0.00188451, No Iterations 6
smoothSolver:  Solving for Uy, Initial residual = 0.0149923, Final residual = 0.00103836, No Iterations 6
GAMG:  Solving for p, Initial residual = 0.01705, Final residual = 0.00081051, No Iterations 2
time step continuity errors : sum local = 0.00222579, global = 0.000112571, cumulative = 0.00628343
smoothSolver:  Solving for omega, Initial residual = 0.0143025, Final residual = 0.000966823, No Iterations 6
smoothSolver:  Solving for k, Initial residual = 0.0868236, Final residual = 0.00668575, No Iterations 6
ExecutionTime = 0.23 s  ClockTime = 0 s

scalarTransport execute: age
smoothSolver:  Solving for age, Initial residual = 0.0498291, Final residual = 0.00277612, No Iterations 3

Time = 17

smoothSolver:  Solving for Ux, Initial residual = 0.025459, Final residual = 0.00183777, No Iterations 6
smoothSolver:  Solving for Uy, Initial residual = 0.0148112, Final residual = 0.00102924, No Iterations 6
GAMG:  Solving for p, Initial residual = 0.0163074, Final residual = 0.000768262, No Iterations 2
time step continuity errors : sum local = 0.00210832, global = 0.000176316, cumulative = 0.00645975
smoothSolver:  Solving for omega, Initial residual = 0.0127442, Final residual = 0.000867741, No Iterations 6
smoothSolver:  Solving for k, Initial residual = 0.080536, Final residual = 0.00624722, No Iterations 6
ExecutionTime = 0.25 s  ClockTime = 0 s

scalarTransport execute: age
smoothSolver:  Solving for age, Initial residual = 0.0436734, Final residual = 0.00258756, No Iterations 3

Time = 18

smoothSolver:  Solving for Ux, Initial residual = 0.0247624, Final residual = 0.00179724, No Iterations 6
smoothSolver:  Solving for Uy, Initial residual = 0.0146119, Final residual = 0.00101728, No Iterations 6
GAMG:  Solving for p, Initial residual = 0.0157282, Final residual = 0.000734507, No Iterations 2
time step continuity errors : sum local = 0.00201038, global = 0.000220031, cumulative = 0.00667978
smoothSolver:  Solving for omega, Initial residual = 0.0114358, Final residual = 0.000783064, No Iterations 6
smoothSolver:  Solving for k, Initial residual = 0.0750346, Final residual = 0.00585739, No Iterations 6
ExecutionTime = 0.26 s  ClockTime = 0 s

scalarTransport execute: age
smoothSolver:  Solving for age, Initial residual = 0.0386237, Final residual = 0.0023393, No Iterations 3

Time = 19

smoothSolver:  Solving for Ux, Initial residual = 0.0241193, Final residual = 0.00176128, No Iterations 6
smoothSolver:  Solving for Uy, Initial residual = 0.0144069, Final residual = 0.00100381, No Iterations 6
GAMG:  Solving for p, Initial residual = 0.0152583, Final residual = 0.000720136, No Iterations 2
time step continuity errors : sum local = 0.00196277, global = 0.000245548, cumulative = 0.00692533
smoothSolver:  Solving for omega, Initial residual = 0.0103237, Final residual = 0.000710097, No Iterations 6
smoothSolver:  Solving for k, Initial residual = 0.0701834, Final residual = 0.00550905, No Iterations 6
ExecutionTime = 0.27 s  ClockTime = 0 s

scalarTransport execute: age
smoothSolver:  Solving for age, Initial residual = 0.0345497, Final residual = 0.00222203, No Iterations 3

Time = 20

smoothSolver:  Solving for Ux, Initial residual = 0.0235815, Final residual = 0.00172974, No Iterations 6
smoothSolver:  Solving for Uy, Initial residual = 0.0141836, Final residual = 0.000991186, No Iterations 6
GAMG:  Solving for p, Initial residual = 0.0148071, Final residual = 0.000720726, No Iterations 2
time step continuity errors : sum local = 0.00195249, global = 0.000255703, cumulative = 0.00718103
smoothSolver:  Solving for omega, Initial residual = 0.00937006, Final residual = 0.000646696, No Iterations 6
smoothSolver:  Solving for k, Initial residual = 0.0658847, Final residual = 0.00519658, No Iterations 6
ExecutionTime = 0.28 s  ClockTime = 0 s

scalarTransport execute: age
smoothSolver:  Solving for age, Initial residual = 0.0312617, Final residual = 0.00218568, No Iterations 3

Time = 21

smoothSolver:  Solving for Ux, Initial residual = 0.0231056, Final residual = 0.00170215, No Iterations 6
smoothSolver:  Solving for Uy, Initial residual = 0.0139529, Final residual = 0.000979912, No Iterations 6
GAMG:  Solving for p, Initial residual = 0.0144031, Final residual = 0.000730926, No Iterations 2
time step continuity errors : sum local = 0.00196338, global = 0.000254078, cumulative = 0.00743511
smoothSolver:  Solving for omega, Initial residual = 0.00854508, Final residual = 0.00059128, No Iterations 6
smoothSolver:  Solving for k, Initial residual = 0.0620542, Final residual = 0.00491484, No Iterations 6
ExecutionTime = 0.29 s  ClockTime = 0 s

scalarTransport execute: age
smoothSolver:  Solving for age, Initial residual = 0.028147, Final residual = 0.00211042, No Iterations 3

Time = 22

smoothSolver:  Solving for Ux, Initial residual = 0.0226835, Final residual = 0.00167752, No Iterations 6
smoothSolver:  Solving for Uy, Initial residual = 0.0136979, Final residual = 0.000967057, No Iterations 6
GAMG:  Solving for p, Initial residual = 0.0139349, Final residual = 0.000745301, No Iterations 2
time step continuity errors : sum local = 0.00198413, global = 0.000245996, cumulative = 0.00768111
smoothSolver:  Solving for omega, Initial residual = 0.00782349, Final residual = 0.00054259, No Iterations 6
smoothSolver:  Solving for k, Initial residual = 0.0586168, Final residual = 0.0046596, No Iterations 6
ExecutionTime = 0.3 s  ClockTime = 0 s

scalarTransport execute: age
smoothSolver:  Solving for age, Initial residual = 0.0257139, Final residual = 0.00210898, No Iterations 3

Time = 23

smoothSolver:  Solving for Ux, Initial residual = 0.0222964, Final residual = 0.00165521, No Iterations 6
smoothSolver:  Solving for Uy, Initial residual = 0.013462, Final residual = 0.000953951, No Iterations 6
GAMG:  Solving for p, Initial residual = 0.0133849, Final residual = 0.000763539, No Iterations 2
time step continuity errors : sum local = 0.00201758, global = 0.000236201, cumulative = 0.00791731
smoothSolver:  Solving for omega, Initial residual = 0.00719183, Final residual = 0.000499636, No Iterations 6
smoothSolver:  Solving for k, Initial residual = 0.0555178, Final residual = 0.00442754, No Iterations 6
ExecutionTime = 0.32 s  ClockTime = 0 s

scalarTransport execute: age
smoothSolver:  Solving for age, Initial residual = 0.0237807, Final residual = 0.00214532, No Iterations 3

Time = 24

smoothSolver:  Solving for Ux, Initial residual = 0.0219627, Final residual = 0.00163496, No Iterations 6
smoothSolver:  Solving for Uy, Initial residual = 0.0132134, Final residual = 0.000940145, No Iterations 6
GAMG:  Solving for p, Initial residual = 0.0128385, Final residual = 0.000775304, No Iterations 2
time step continuity errors : sum local = 0.00203773, global = 0.000222383, cumulative = 0.00813969
smoothSolver:  Solving for omega, Initial residual = 0.00663295, Final residual = 0.000461521, No Iterations 6
smoothSolver:  Solving for k, Initial residual = 0.0527095, Final residual = 0.00421558, No Iterations 6
ExecutionTime = 0.33 s  ClockTime = 0 s

scalarTransport execute: age
smoothSolver:  Solving for age, Initial residual = 0.0222466, Final residual = 0.00168393, No Iterations 4

Time = 25

smoothSolver:  Solving for Ux, Initial residual = 0.0216199, Final residual = 0.00161684, No Iterations 6
smoothSolver:  Solving for Uy, Initial residual = 0.0129496, Final residual = 0.000925131, No Iterations 6
GAMG:  Solving for p, Initial residual = 0.0122467, Final residual = 0.000782504, No Iterations 2
time step continuity errors : sum local = 0.00204657, global = 0.000207077, cumulative = 0.00834677
smoothSolver:  Solving for omega, Initial residual = 0.00613758, Final residual = 0.000427558, No Iterations 6
smoothSolver:  Solving for k, Initial residual = 0.0501521, Final residual = 0.00402093, No Iterations 6
ExecutionTime = 0.34 s  ClockTime = 0 s

scalarTransport execute: age
smoothSolver:  Solving for age, Initial residual = 0.0207662, Final residual = 0.00165262, No Iterations 4

Time = 26

smoothSolver:  Solving for Ux, Initial residual = 0.0213176, Final residual = 0.00160096, No Iterations 6
smoothSolver:  Solving for Uy, Initial residual = 0.0127054, Final residual = 0.000909805, No Iterations 6
GAMG:  Solving for p, Initial residual = 0.0117229, Final residual = 0.000782598, No Iterations 2
time step continuity errors : sum local = 0.00203744, global = 0.000191308, cumulative = 0.00853807
smoothSolver:  Solving for omega, Initial residual = 0.005697, Final residual = 0.000397223, No Iterations 6
smoothSolver:  Solving for k, Initial residual = 0.0478127, Final residual = 0.00384164, No Iterations 6
ExecutionTime = 0.35 s  ClockTime = 0 s

scalarTransport execute: age
smoothSolver:  Solving for age, Initial residual = 0.0197037, Final residual = 0.00168818, No Iterations 4

Time = 27

smoothSolver:  Solving for Ux, Initial residual = 0.0210423, Final residual = 0.00158665, No Iterations 6
smoothSolver:  Solving for Uy, Initial residual = 0.0124908, Final residual = 0.000894452, No Iterations 6
GAMG:  Solving for p, Initial residual = 0.0114591, Final residual = 0.000772849, No Iterations 2
time step continuity errors : sum local = 0.00200463, global = 0.000173879, cumulative = 0.00871195
smoothSolver:  Solving for omega, Initial residual = 0.00530265, Final residual = 0.000370185, No Iterations 6
smoothSolver:  Solving for k, Initial residual = 0.0456632, Final residual = 0.00367574, No Iterations 6
ExecutionTime = 0.36 s  ClockTime = 0 s

scalarTransport execute: age
smoothSolver:  Solving for age, Initial residual = 0.0189864, Final residual = 0.00177142, No Iterations 4

Time = 28

smoothSolver:  Solving for Ux, Initial residual = 0.020786, Final residual = 0.00157463, No Iterations 6
smoothSolver:  Solving for Uy, Initial residual = 0.0122885, Final residual = 0.000878253, No Iterations 6
GAMG:  Solving for p, Initial residual = 0.0115512, Final residual = 0.000755604, No Iterations 2
time step continuity errors : sum local = 0.00195235, global = 0.00015902, cumulative = 0.00887097
smoothSolver:  Solving for omega, Initial residual = 0.00495407, Final residual = 0.000346002, No Iterations 6
smoothSolver:  Solving for k, Initial residual = 0.043681, Final residual = 0.00352184, No Iterations 6
ExecutionTime = 0.37 s  ClockTime = 0 s

scalarTransport execute: age
smoothSolver:  Solving for age, Initial residual = 0.0187094, Final residual = 0.00147203, No Iterations 5

Time = 29

smoothSolver:  Solving for Ux, Initial residual = 0.0205835, Final residual = 0.00156508, No Iterations 6
smoothSolver:  Solving for Uy, Initial residual = 0.0121102, Final residual = 0.000862908, No Iterations 6
GAMG:  Solving for p, Initial residual = 0.0118357, Final residual = 0.000741053, No Iterations 2
time step continuity errors : sum local = 0.00190865, global = 0.000147333, cumulative = 0.00901831
smoothSolver:  Solving for omega, Initial residual = 0.00464358, Final residual = 0.00032408, No Iterations 6
smoothSolver:  Solving for k, Initial residual = 0.0418444, Final residual = 0.00337849, No Iterations 6
ExecutionTime = 0.39 s  ClockTime = 0 s

scalarTransport execute: age
smoothSolver:  Solving for age, Initial residual = 0.0186833, Final residual = 0.00148698, No Iterations 5

Time = 30

smoothSolver:  Solving for Ux, Initial residual = 0.0204725, Final residual = 0.00155841, No Iterations 6
smoothSolver:  Solving for Uy, Initial residual = 0.011915, Final residual = 0.000846743, No Iterations 6
GAMG:  Solving for p, Initial residual = 0.012161, Final residual = 0.000736279, No Iterations 2
time step continuity errors : sum local = 0.00188791, global = 0.000141248, cumulative = 0.00915955
smoothSolver:  Solving for omega, Initial residual = 0.00436434, Final residual = 0.000304082, No Iterations 6
smoothSolver:  Solving for k, Initial residual = 0.0401288, Final residual = 0.00324403, No Iterations 6
ExecutionTime = 0.4 s  ClockTime = 0 s

scalarTransport execute: age
smoothSolver:  Solving for age, Initial residual = 0.018567, Final residual = 0.00151259, No Iterations 5

Time = 31

smoothSolver:  Solving for Ux, Initial residual = 0.0204038, Final residual = 0.00155377, No Iterations 6
smoothSolver:  Solving for Uy, Initial residual = 0.0116909, Final residual = 0.00082949, No Iterations 6
GAMG:  Solving for p, Initial residual = 0.0122943, Final residual = 0.00075975, No Iterations 2
time step continuity errors : sum local = 0.00193729, global = 0.000138051, cumulative = 0.0092976
smoothSolver:  Solving for omega, Initial residual = 0.00410839, Final residual = 0.000285743, No Iterations 6
smoothSolver:  Solving for k, Initial residual = 0.0385281, Final residual = 0.00311787, No Iterations 6
ExecutionTime = 0.41 s  ClockTime = 0 s

scalarTransport execute: age
smoothSolver:  Solving for age, Initial residual = 0.0184899, Final residual = 0.00158659, No Iterations 5

Time = 32

smoothSolver:  Solving for Ux, Initial residual = 0.0203649, Final residual = 0.00154877, No Iterations 6
smoothSolver:  Solving for Uy, Initial residual = 0.0114293, Final residual = 0.000810107, No Iterations 6
GAMG:  Solving for p, Initial residual = 0.012187, Final residual = 0.000782904, No Iterations 2
time step continuity errors : sum local = 0.00198691, global = 0.000135455, cumulative = 0.00943306
smoothSolver:  Solving for omega, Initial residual = 0.00387306, Final residual = 0.00026888, No Iterations 6
smoothSolver:  Solving for k, Initial residual = 0.0370314, Final residual = 0.00299945, No Iterations 6
ExecutionTime = 0.42 s  ClockTime = 0 s

scalarTransport execute: age
smoothSolver:  Solving for age, Initial residual = 0.0184403, Final residual = 0.00167736, No Iterations 5

Time = 33

smoothSolver:  Solving for Ux, Initial residual = 0.0203287, Final residual = 0.00154516, No Iterations 6
smoothSolver:  Solving for Uy, Initial residual = 0.0111107, Final residual = 0.000788333, No Iterations 6
GAMG:  Solving for p, Initial residual = 0.0118144, Final residual = 0.000789521, No Iterations 2
time step continuity errors : sum local = 0.00199573, global = 0.000132577, cumulative = 0.00956564
smoothSolver:  Solving for omega, Initial residual = 0.00365893, Final residual = 0.000253291, No Iterations 6
smoothSolver:  Solving for k, Initial residual = 0.0356275, Final residual = 0.00288815, No Iterations 6
ExecutionTime = 0.43 s  ClockTime = 0 s

scalarTransport execute: age
smoothSolver:  Solving for age, Initial residual = 0.0184119, Final residual = 0.00178757, No Iterations 5

Time = 34

smoothSolver:  Solving for Ux, Initial residual = 0.020287, Final residual = 0.00153955, No Iterations 6
smoothSolver:  Solving for Uy, Initial residual = 0.0107575, Final residual = 0.000764956, No Iterations 6
GAMG:  Solving for p, Initial residual = 0.0112607, Final residual = 0.000777984, No Iterations 2
time step continuity errors : sum local = 0.00196042, global = 0.000128401, cumulative = 0.00969404
smoothSolver:  Solving for omega, Initial residual = 0.00346191, Final residual = 0.000238845, No Iterations 6
smoothSolver:  Solving for k, Initial residual = 0.0343094, Final residual = 0.0027836, No Iterations 6
ExecutionTime = 0.44 s  ClockTime = 0 s

scalarTransport execute: age
smoothSolver:  Solving for age, Initial residual = 0.0183795, Final residual = 0.00149105, No Iterations 6

Time = 35

smoothSolver:  Solving for Ux, Initial residual = 0.0202249, Final residual = 0.00153426, No Iterations 6
smoothSolver:  Solving for Uy, Initial residual = 0.0103785, Final residual = 0.000741068, No Iterations 6
GAMG:  Solving for p, Initial residual = 0.0106856, Final residual = 0.00076509, No Iterations 2
time step continuity errors : sum local = 0.00192278, global = 0.000119052, cumulative = 0.00981309
smoothSolver:  Solving for omega, Initial residual = 0.00327983, Final residual = 0.000225417, No Iterations 6
smoothSolver:  Solving for k, Initial residual = 0.0330708, Final residual = 0.00268544, No Iterations 6
ExecutionTime = 0.46 s  ClockTime = 0 s

scalarTransport execute: age
smoothSolver:  Solving for age, Initial residual = 0.0181767, Final residual = 0.00150003, No Iterations 6

Time = 36

smoothSolver:  Solving for Ux, Initial residual = 0.020141, Final residual = 0.00152732, No Iterations 6
smoothSolver:  Solving for Uy, Initial residual = 0.010002, Final residual = 0.000718162, No Iterations 6
GAMG:  Solving for p, Initial residual = 0.0102283, Final residual = 0.000765113, No Iterations 2
time step continuity errors : sum local = 0.0019212, global = 0.00010798, cumulative = 0.00992107
smoothSolver:  Solving for omega, Initial residual = 0.00310884, Final residual = 0.000212899, No Iterations 6
smoothSolver:  Solving for k, Initial residual = 0.031906, Final residual = 0.0025935, No Iterations 6
ExecutionTime = 0.47 s  ClockTime = 0 s

scalarTransport execute: age
smoothSolver:  Solving for age, Initial residual = 0.0181942, Final residual = 0.00153512, No Iterations 6

Time = 37

smoothSolver:  Solving for Ux, Initial residual = 0.0200503, Final residual = 0.00151915, No Iterations 6
smoothSolver:  Solving for Uy, Initial residual = 0.00968564, Final residual = 0.000698762, No Iterations 6
GAMG:  Solving for p, Initial residual = 0.00970688, Final residual = 0.000795208, No Iterations 2
time step continuity errors : sum local = 0.00198641, global = 9.64579e-05, cumulative = 0.0100175
smoothSolver:  Solving for omega, Initial residual = 0.00294901, Final residual = 0.000201197, No Iterations 6
smoothSolver:  Solving for k, Initial residual = 0.0308134, Final residual = 0.0025074, No Iterations 6
ExecutionTime = 0.48 s  ClockTime = 0 s

scalarTransport execute: age
smoothSolver:  Solving for age, Initial residual = 0.0181143, Final residual = 0.00159036, No Iterations 6

Time = 38

smoothSolver:  Solving for Ux, Initial residual = 0.0199445, Final residual = 0.00151077, No Iterations 6
smoothSolver:  Solving for Uy, Initial residual = 0.00941003, Final residual = 0.000682057, No Iterations 6
GAMG:  Solving for p, Initial residual = 0.00942194, Final residual = 0.000856586, No Iterations 2
time step continuity errors : sum local = 0.00213418, global = 8.8852e-05, cumulative = 0.0101064
smoothSolver:  Solving for omega, Initial residual = 0.00280198, Final residual = 0.000190276, No Iterations 6
smoothSolver:  Solving for k, Initial residual = 0.029792, Final residual = 0.00242695, No Iterations 6
ExecutionTime = 0.49 s  ClockTime = 0 s

scalarTransport execute: age
smoothSolver:  Solving for age, Initial residual = 0.0180266, Final residual = 0.00164286, No Iterations 6

Time = 39

smoothSolver:  Solving for Ux, Initial residual = 0.0198673, Final residual = 0.00150025, No Iterations 6
smoothSolver:  Solving for Uy, Initial residual = 0.00916798, Final residual = 0.000667673, No Iterations 6
GAMG:  Solving for p, Initial residual = 0.00927502, Final residual = 0.000925431, No Iterations 2
time step continuity errors : sum local = 0.00229956, global = 8.29001e-05, cumulative = 0.0101893
smoothSolver:  Solving for omega, Initial residual = 0.00266369, Final residual = 0.000180068, No Iterations 6
smoothSolver:  Solving for k, Initial residual = 0.0288357, Final residual = 0.00235158, No Iterations 6
ExecutionTime = 0.5 s  ClockTime = 0 s

scalarTransport execute: age
smoothSolver:  Solving for age, Initial residual = 0.0179424, Final residual = 0.00173674, No Iterations 6

Time = 40

smoothSolver:  Solving for Ux, Initial residual = 0.0197759, Final residual = 0.00148819, No Iterations 6
smoothSolver:  Solving for Uy, Initial residual = 0.00894559, Final residual = 0.000654425, No Iterations 6
GAMG:  Solving for p, Initial residual = 0.00917719, Final residual = 0.00065215, No Iterations 3
time step continuity errors : sum local = 0.00161705, global = 8.91754e-05, cumulative = 0.0102785
smoothSolver:  Solving for omega, Initial residual = 0.00255091, Final residual = 0.00017088, No Iterations 6
smoothSolver:  Solving for k, Initial residual = 0.0279426, Final residual = 0.00228103, No Iterations 6
ExecutionTime = 0.52 s  ClockTime = 0 s

scalarTransport execute: age
smoothSolver:  Solving for age, Initial residual = 0.0181381, Final residual = 0.00158155, No Iterations 7

Time = 41

smoothSolver:  Solving for Ux, Initial residual = 0.0198565, Final residual = 0.00148631, No Iterations 6
smoothSolver:  Solving for Uy, Initial residual = 0.00887288, Final residual = 0.000650773, No Iterations 6
GAMG:  Solving for p, Initial residual = 0.00908511, Final residual = 0.000809426, No Iterations 2
time step continuity errors : sum local = 0.00199859, global = 7.72293e-05, cumulative = 0.0103557
smoothSolver:  Solving for omega, Initial residual = 0.00240597, Final residual = 0.000161571, No Iterations 6
smoothSolver:  Solving for k, Initial residual = 0.0271047, Final residual = 0.00221473, No Iterations 6
ExecutionTime = 0.53 s  ClockTime = 0 s

scalarTransport execute: age
smoothSolver:  Solving for age, Initial residual = 0.0180644, Final residual = 0.00157354, No Iterations 7

Time = 42

smoothSolver:  Solving for Ux, Initial residual = 0.0196065, Final residual = 0.00147079, No Iterations 6
smoothSolver:  Solving for Uy, Initial residual = 0.00859057, Final residual = 0.000634368, No Iterations 6
GAMG:  Solving for p, Initial residual = 0.00891503, Final residual = 0.000553243, No Iterations 3
time step continuity errors : sum local = 0.00136471, global = 8.11334e-05, cumulative = 0.0104368
smoothSolver:  Solving for omega, Initial residual = 0.0022914, Final residual = 0.000153197, No Iterations 6
smoothSolver:  Solving for k, Initial residual = 0.0263261, Final residual = 0.00215237, No Iterations 6
ExecutionTime = 0.54 s  ClockTime = 0 s

scalarTransport execute: age
smoothSolver:  Solving for age, Initial residual = 0.018102, Final residual = 0.00160594, No Iterations 7

Time = 43

smoothSolver:  Solving for Ux, Initial residual = 0.0194757, Final residual = 0.00145063, No Iterations 6
smoothSolver:  Solving for Uy, Initial residual = 0.00846077, Final residual = 0.000626648, No Iterations 6
GAMG:  Solving for p, Initial residual = 0.00864822, Final residual = 0.000861935, No Iterations 2
time step continuity errors : sum local = 0.0021266, global = 6.8818e-05, cumulative = 0.0105056
smoothSolver:  Solving for omega, Initial residual = 0.00218585, Final residual = 0.000145369, No Iterations 6
smoothSolver:  Solving for k, Initial residual = 0.0255901, Final residual = 0.0020932, No Iterations 6
ExecutionTime = 0.55 s  ClockTime = 0 s

scalarTransport execute: age
smoothSolver:  Solving for age, Initial residual = 0.0179971, Final residual = 0.00165337, No Iterations 7

Time = 44

smoothSolver:  Solving for Ux, Initial residual = 0.0192201, Final residual = 0.00143289, No Iterations 6
smoothSolver:  Solving for Uy, Initial residual = 0.00830143, Final residual = 0.000616309, No Iterations 6
GAMG:  Solving for p, Initial residual = 0.00864139, Final residual = 0.000679088, No Iterations 3
time step continuity errors : sum local = 0.00167311, global = 8.15658e-05, cumulative = 0.0105872
smoothSolver:  Solving for omega, Initial residual = 0.00208475, Final residual = 0.000137844, No Iterations 6
smoothSolver:  Solving for k, Initial residual = 0.0249068, Final residual = 0.00203735, No Iterations 6
ExecutionTime = 0.56 s  ClockTime = 0 s

scalarTransport execute: age
smoothSolver:  Solving for age, Initial residual = 0.0181502, Final residual = 0.00172397, No Iterations 7

Time = 45

smoothSolver:  Solving for Ux, Initial residual = 0.0191371, Final residual = 0.00141515, No Iterations 6
smoothSolver:  Solving for Uy, Initial residual = 0.00833067, Final residual = 0.000623907, No Iterations 6
GAMG:  Solving for p, Initial residual = 0.00841401, Final residual = 0.00053453, No Iterations 3
time step continuity errors : sum local = 0.00131473, global = 7.57367e-05, cumulative = 0.0106629
smoothSolver:  Solving for omega, Initial residual = 0.00199704, Final residual = 0.000130843, No Iterations 6
smoothSolver:  Solving for k, Initial residual = 0.0242572, Final residual = 0.00198438, No Iterations 6
ExecutionTime = 0.58 s  ClockTime = 0 s

scalarTransport execute: age
smoothSolver:  Solving for age, Initial residual = 0.0183495, Final residual = 0.00156478, No Iterations 8

Time = 46

smoothSolver:  Solving for Ux, Initial residual = 0.0190156, Final residual = 0.001407, No Iterations 6
smoothSolver:  Solving for Uy, Initial residual = 0.00829053, Final residual = 0.000622043, No Iterations 6
GAMG:  Solving for p, Initial residual = 0.00809827, Final residual = 0.00052589, No Iterations 3
time step continuity errors : sum local = 0.00128842, global = 6.75933e-05, cumulative = 0.0107305
smoothSolver:  Solving for omega, Initial residual = 0.00190029, Final residual = 0.000124273, No Iterations 6
smoothSolver:  Solving for k, Initial residual = 0.0236456, Final residual = 0.00193424, No Iterations 6
ExecutionTime = 0.59 s  ClockTime = 0 s

scalarTransport execute: age
smoothSolver:  Solving for age, Initial residual = 0.018427, Final residual = 0.00165675, No Iterations 8

Time = 47

smoothSolver:  Solving for Ux, Initial residual = 0.0188529, Final residual = 0.00139631, No Iterations 6
smoothSolver:  Solving for Uy, Initial residual = 0.008242, Final residual = 0.000622521, No Iterations 6
GAMG:  Solving for p, Initial residual = 0.00788768, Final residual = 0.000506852, No Iterations 3
time step continuity errors : sum local = 0.00123795, global = 6.46191e-05, cumulative = 0.0107952
smoothSolver:  Solving for omega, Initial residual = 0.0018144, Final residual = 0.0001182, No Iterations 6
smoothSolver:  Solving for k, Initial residual = 0.0230648, Final residual = 0.00188662, No Iterations 6
ExecutionTime = 0.6 s  ClockTime = 0 s

scalarTransport execute: age
smoothSolver:  Solving for age, Initial residual = 0.0185655, Final residual = 0.00174721, No Iterations 8

Time = 48

smoothSolver:  Solving for Ux, Initial residual = 0.0186652, Final residual = 0.00138194, No Iterations 6
smoothSolver:  Solving for Uy, Initial residual = 0.00819549, Final residual = 0.000622265, No Iterations 6
GAMG:  Solving for p, Initial residual = 0.0076487, Final residual = 0.000521651, No Iterations 3
time step continuity errors : sum local = 0.00127064, global = 6.34194e-05, cumulative = 0.0108586
smoothSolver:  Solving for omega, Initial residual = 0.00173591, Final residual = 0.000173175, No Iterations 5
smoothSolver:  Solving for k, Initial residual = 0.0225275, Final residual = 0.00184227, No Iterations 6
ExecutionTime = 0.61 s  ClockTime = 0 s

scalarTransport execute: age
smoothSolver:  Solving for age, Initial residual = 0.0187714, Final residual = 0.00182586, No Iterations 8

Time = 49

smoothSolver:  Solving for Ux, Initial residual = 0.018476, Final residual = 0.0013668, No Iterations 6
smoothSolver:  Solving for Uy, Initial residual = 0.00819416, Final residual = 0.000625958, No Iterations 6
GAMG:  Solving for p, Initial residual = 0.00744204, Final residual = 0.000519583, No Iterations 3
time step continuity errors : sum local = 0.00126175, global = 6.72851e-05, cumulative = 0.0109259
smoothSolver:  Solving for omega, Initial residual = 0.00167001, Final residual = 0.000165545, No Iterations 5
smoothSolver:  Solving for k, Initial residual = 0.0220233, Final residual = 0.00180037, No Iterations 6
ExecutionTime = 0.63 s  ClockTime = 0 s

scalarTransport execute: age
smoothSolver:  Solving for age, Initial residual = 0.018887, Final residual = 0.00187843, No Iterations 8

Time = 50

smoothSolver:  Solving for Ux, Initial residual = 0.0182694, Final residual = 0.00135075, No Iterations 6
smoothSolver:  Solving for Uy, Initial residual = 0.00821167, Final residual = 0.000630714, No Iterations 6
GAMG:  Solving for p, Initial residual = 0.00718975, Final residual = 0.0005147, No Iterations 3
time step continuity errors : sum local = 0.00124649, global = 6.96381e-05, cumulative = 0.0109955
smoothSolver:  Solving for omega, Initial residual = 0.00160891, Final residual = 0.000158372, No Iterations 5
smoothSolver:  Solving for k, Initial residual = 0.0215418, Final residual = 0.00176016, No Iterations 6
ExecutionTime = 0.64 s  ClockTime = 0 s

scalarTransport execute: age
smoothSolver:  Solving for age, Initial residual = 0.0189779, Final residual = 0.00162615, No Iterations 9

Time = 51

smoothSolver:  Solving for Ux, Initial residual = 0.0180744, Final residual = 0.00133652, No Iterations 6
smoothSolver:  Solving for Uy, Initial residual = 0.00822611, Final residual = 0.000634945, No Iterations 6
GAMG:  Solving for p, Initial residual = 0.00696758, Final residual = 0.000508709, No Iterations 3
time step continuity errors : sum local = 0.00122762, global = 7.1608e-05, cumulative = 0.0110671
smoothSolver:  Solving for omega, Initial residual = 0.00154683, Final residual = 0.000151526, No Iterations 5
smoothSolver:  Solving for k, Initial residual = 0.0210788, Final residual = 0.00172144, No Iterations 6
ExecutionTime = 0.65 s  ClockTime = 0 s

scalarTransport execute: age
smoothSolver:  Solving for age, Initial residual = 0.0188937, Final residual = 0.00187591, No Iterations 8

Time = 52

smoothSolver:  Solving for Ux, Initial residual = 0.0178514, Final residual = 0.00132099, No Iterations 6
smoothSolver:  Solving for Uy, Initial residual = 0.00825366, Final residual = 0.000640258, No Iterations 6
GAMG:  Solving for p, Initial residual = 0.00675961, Final residual = 0.000503525, No Iterations 3
time step continuity errors : sum local = 0.00121127, global = 7.42209e-05, cumulative = 0.0111413
smoothSolver:  Solving for omega, Initial residual = 0.00148964, Final residual = 0.00014506, No Iterations 5
smoothSolver:  Solving for k, Initial residual = 0.0206349, Final residual = 0.00168412, No Iterations 6
ExecutionTime = 0.66 s  ClockTime = 0 s

scalarTransport execute: age
smoothSolver:  Solving for age, Initial residual = 0.0188747, Final residual = 0.00186801, No Iterations 8

Time = 53

smoothSolver:  Solving for Ux, Initial residual = 0.0176281, Final residual = 0.00130572, No Iterations 6
smoothSolver:  Solving for Uy, Initial residual = 0.00827493, Final residual = 0.000645327, No Iterations 6
GAMG:  Solving for p, Initial residual = 0.00659267, Final residual = 0.000498797, No Iterations 3
time step continuity errors : sum local = 0.00119585, global = 7.61672e-05, cumulative = 0.0112175
smoothSolver:  Solving for omega, Initial residual = 0.00143935, Final residual = 0.000138759, No Iterations 5
smoothSolver:  Solving for k, Initial residual = 0.0202083, Final residual = 0.00164815, No Iterations 6
ExecutionTime = 0.68 s  ClockTime = 0 s

scalarTransport execute: age
smoothSolver:  Solving for age, Initial residual = 0.0188564, Final residual = 0.00182931, No Iterations 8

Time = 54

smoothSolver:  Solving for Ux, Initial residual = 0.0173993, Final residual = 0.00128996, No Iterations 6
smoothSolver:  Solving for Uy, Initial residual = 0.0082985, Final residual = 0.000650021, No Iterations 6
GAMG:  Solving for p, Initial residual = 0.00646001, Final residual = 0.000499692, No Iterations 3
time step continuity errors : sum local = 0.00119393, global = 7.71203e-05, cumulative = 0.0112946
smoothSolver:  Solving for omega, Initial residual = 0.00139443, Final residual = 0.00013281, No Iterations 5
smoothSolver:  Solving for k, Initial residual = 0.019798, Final residual = 0.00161337, No Iterations 6
ExecutionTime = 0.69 s  ClockTime = 0 s

scalarTransport execute: age
smoothSolver:  Solving for age, Initial residual = 0.0187439, Final residual = 0.00177184, No Iterations 8

Time = 55

smoothSolver:  Solving for Ux, Initial residual = 0.0171727, Final residual = 0.00127377, No Iterations 6
smoothSolver:  Solving for Uy, Initial residual = 0.00832798, Final residual = 0.000654356, No Iterations 6
GAMG:  Solving for p, Initial residual = 0.00635809, Final residual = 0.000501333, No Iterations 3
time step continuity errors : sum local = 0.00119378, global = 7.75714e-05, cumulative = 0.0113722
smoothSolver:  Solving for omega, Initial residual = 0.00134774, Final residual = 0.00012726, No Iterations 5
smoothSolver:  Solving for k, Initial residual = 0.0193996, Final residual = 0.00157957, No Iterations 6
ExecutionTime = 0.7 s  ClockTime = 0 s

scalarTransport execute: age
smoothSolver:  Solving for age, Initial residual = 0.0186498, Final residual = 0.00172754, No Iterations 8

Time = 56

smoothSolver:  Solving for Ux, Initial residual = 0.0169576, Final residual = 0.00125732, No Iterations 6
smoothSolver:  Solving for Uy, Initial residual = 0.00835227, Final residual = 0.000657823, No Iterations 6
GAMG:  Solving for p, Initial residual = 0.00629964, Final residual = 0.000505438, No Iterations 3
time step continuity errors : sum local = 0.00119921, global = 7.75515e-05, cumulative = 0.0114497
smoothSolver:  Solving for omega, Initial residual = 0.0013019, Final residual = 0.000121897, No Iterations 5
smoothSolver:  Solving for k, Initial residual = 0.0190132, Final residual = 0.00154674, No Iterations 6
ExecutionTime = 0.71 s  ClockTime = 0 s

scalarTransport execute: age
smoothSolver:  Solving for age, Initial residual = 0.01861, Final residual = 0.00168642, No Iterations 8

Time = 57

smoothSolver:  Solving for Ux, Initial residual = 0.0167572, Final residual = 0.00124108, No Iterations 6
smoothSolver:  Solving for Uy, Initial residual = 0.00837276, Final residual = 0.000660281, No Iterations 6
GAMG:  Solving for p, Initial residual = 0.00632801, Final residual = 0.000509053, No Iterations 3
time step continuity errors : sum local = 0.00120312, global = 7.72616e-05, cumulative = 0.011527
smoothSolver:  Solving for omega, Initial residual = 0.00126583, Final residual = 0.000116765, No Iterations 5
smoothSolver:  Solving for k, Initial residual = 0.0186394, Final residual = 0.00151481, No Iterations 6
ExecutionTime = 0.72 s  ClockTime = 0 s

scalarTransport execute: age
smoothSolver:  Solving for age, Initial residual = 0.0186406, Final residual = 0.00168307, No Iterations 8

Time = 58

smoothSolver:  Solving for Ux, Initial residual = 0.0165754, Final residual = 0.00122548, No Iterations 6
smoothSolver:  Solving for Uy, Initial residual = 0.00837957, Final residual = 0.000661244, No Iterations 6
GAMG:  Solving for p, Initial residual = 0.00636697, Final residual = 0.000513955, No Iterations 3
time step continuity errors : sum local = 0.0012103, global = 7.65402e-05, cumulative = 0.0116035
smoothSolver:  Solving for omega, Initial residual = 0.00122819, Final residual = 0.000112125, No Iterations 5
smoothSolver:  Solving for k, Initial residual = 0.0182728, Final residual = 0.0014836, No Iterations 6
ExecutionTime = 0.74 s  ClockTime = 0 s

scalarTransport execute: age
smoothSolver:  Solving for age, Initial residual = 0.0188631, Final residual = 0.00176607, No Iterations 8

Time = 59

smoothSolver:  Solving for Ux, Initial residual = 0.0164016, Final residual = 0.00121051, No Iterations 6
smoothSolver:  Solving for Uy, Initial residual = 0.00837266, Final residual = 0.00066097, No Iterations 6
GAMG:  Solving for p, Initial residual = 0.0063281, Final residual = 0.000515008, No Iterations 3
time step continuity errors : sum local = 0.00120631, global = 7.7589e-05, cumulative = 0.0116811
smoothSolver:  Solving for omega, Initial residual = 0.00119573, Final residual = 0.00010778, No Iterations 5
smoothSolver:  Solving for k, Initial residual = 0.017915, Final residual = 0.00145305, No Iterations 6
ExecutionTime = 0.75 s  ClockTime = 0 s

scalarTransport execute: age
smoothSolver:  Solving for age, Initial residual = 0.0189757, Final residual = 0.00183176, No Iterations 8

Time = 60

smoothSolver:  Solving for Ux, Initial residual = 0.0162325, Final residual = 0.00119609, No Iterations 6
smoothSolver:  Solving for Uy, Initial residual = 0.00835707, Final residual = 0.000659401, No Iterations 6
GAMG:  Solving for p, Initial residual = 0.00635154, Final residual = 0.000525482, No Iterations 3
time step continuity errors : sum local = 0.00122542, global = 7.60107e-05, cumulative = 0.0117571
smoothSolver:  Solving for omega, Initial residual = 0.00116475, Final residual = 0.000103645, No Iterations 5
smoothSolver:  Solving for k, Initial residual = 0.0175654, Final residual = 0.00142313, No Iterations 6
ExecutionTime = 0.76 s  ClockTime = 0 s

scalarTransport execute: age
smoothSolver:  Solving for age, Initial residual = 0.0191074, Final residual = 0.00190007, No Iterations 8

Time = 61

smoothSolver:  Solving for Ux, Initial residual = 0.01607, Final residual = 0.0011823, No Iterations 6
smoothSolver:  Solving for Uy, Initial residual = 0.00831628, Final residual = 0.000655688, No Iterations 6
GAMG:  Solving for p, Initial residual = 0.00636613, Final residual = 0.000517191, No Iterations 3
time step continuity errors : sum local = 0.00120032, global = 7.14114e-05, cumulative = 0.0118285
smoothSolver:  Solving for omega, Initial residual = 0.00113385, Final residual = 9.96369e-05, No Iterations 5
smoothSolver:  Solving for k, Initial residual = 0.0172207, Final residual = 0.00139378, No Iterations 6
ExecutionTime = 0.77 s  ClockTime = 0 s

scalarTransport execute: age
smoothSolver:  Solving for age, Initial residual = 0.0191128, Final residual = 0.00169218, No Iterations 9

Time = 62

smoothSolver:  Solving for Ux, Initial residual = 0.0159196, Final residual = 0.00116986, No Iterations 6
smoothSolver:  Solving for Uy, Initial residual = 0.0082479, Final residual = 0.00064965, No Iterations 6
GAMG:  Solving for p, Initial residual = 0.00639456, Final residual = 0.000529078, No Iterations 3
time step continuity errors : sum local = 0.00122232, global = 6.56238e-05, cumulative = 0.0118942
smoothSolver:  Solving for omega, Initial residual = 0.00110361, Final residual = 9.58783e-05, No Iterations 5
smoothSolver:  Solving for k, Initial residual = 0.016882, Final residual = 0.00136495, No Iterations 6
ExecutionTime = 0.79 s  ClockTime = 0 s

scalarTransport execute: age
smoothSolver:  Solving for age, Initial residual = 0.0191315, Final residual = 0.00173651, No Iterations 9

Time = 63

smoothSolver:  Solving for Ux, Initial residual = 0.0157589, Final residual = 0.00115702, No Iterations 6
smoothSolver:  Solving for Uy, Initial residual = 0.0081767, Final residual = 0.000643577, No Iterations 6
GAMG:  Solving for p, Initial residual = 0.00642903, Final residual = 0.000528104, No Iterations 3
time step continuity errors : sum local = 0.00121538, global = 6.28101e-05, cumulative = 0.011957
smoothSolver:  Solving for omega, Initial residual = 0.00107627, Final residual = 9.24564e-05, No Iterations 5
smoothSolver:  Solving for k, Initial residual = 0.0165482, Final residual = 0.00133655, No Iterations 6
ExecutionTime = 0.8 s  ClockTime = 0 s

scalarTransport execute: age
smoothSolver:  Solving for age, Initial residual = 0.018883, Final residual = 0.00173379, No Iterations 9

Time = 64

smoothSolver:  Solving for Ux, Initial residual = 0.015591, Final residual = 0.00114371, No Iterations 6
smoothSolver:  Solving for Uy, Initial residual = 0.00809422, Final residual = 0.000636431, No Iterations 6
GAMG:  Solving for p, Initial residual = 0.00647173, Final residual = 0.0005379, No Iterations 3
time step continuity errors : sum local = 0.00123387, global = 6.12254e-05, cumulative = 0.0120182
smoothSolver:  Solving for omega, Initial residual = 0.00105227, Final residual = 8.92606e-05, No Iterations 5
smoothSolver:  Solving for k, Initial residual = 0.0162206, Final residual = 0.00130854, No Iterations 6
ExecutionTime = 0.81 s  ClockTime = 0 s

scalarTransport execute: age
smoothSolver:  Solving for age, Initial residual = 0.0186853, Final residual = 0.00174782, No Iterations 9

Time = 65

smoothSolver:  Solving for Ux, Initial residual = 0.0154225, Final residual = 0.00113042, No Iterations 6
smoothSolver:  Solving for Uy, Initial residual = 0.00799377, Final residual = 0.000628033, No Iterations 6
GAMG:  Solving for p, Initial residual = 0.00653977, Final residual = 0.000534814, No Iterations 3
time step continuity errors : sum local = 0.00122298, global = 6.07998e-05, cumulative = 0.012079
smoothSolver:  Solving for omega, Initial residual = 0.00102946, Final residual = 8.62796e-05, No Iterations 5
smoothSolver:  Solving for k, Initial residual = 0.0158969, Final residual = 0.00128087, No Iterations 6
ExecutionTime = 0.82 s  ClockTime = 0 s

scalarTransport execute: age
smoothSolver:  Solving for age, Initial residual = 0.0184627, Final residual = 0.00174991, No Iterations 9

Time = 66

smoothSolver:  Solving for Ux, Initial residual = 0.0152546, Final residual = 0.00111721, No Iterations 6
smoothSolver:  Solving for Uy, Initial residual = 0.00787998, Final residual = 0.000618387, No Iterations 6
GAMG:  Solving for p, Initial residual = 0.00659472, Final residual = 0.000538508, No Iterations 3
time step continuity errors : sum local = 0.00122726, global = 6.10934e-05, cumulative = 0.0121401
smoothSolver:  Solving for omega, Initial residual = 0.00100802, Final residual = 8.34935e-05, No Iterations 5
smoothSolver:  Solving for k, Initial residual = 0.0155766, Final residual = 0.00125352, No Iterations 6
ExecutionTime = 0.83 s  ClockTime = 0 s

scalarTransport execute: age
smoothSolver:  Solving for age, Initial residual = 0.0182089, Final residual = 0.00175205, No Iterations 9

Time = 67

smoothSolver:  Solving for Ux, Initial residual = 0.0150797, Final residual = 0.00110406, No Iterations 6
smoothSolver:  Solving for Uy, Initial residual = 0.00775005, Final residual = 0.000607413, No Iterations 6
GAMG:  Solving for p, Initial residual = 0.00665713, Final residual = 0.000535257, No Iterations 3
time step continuity errors : sum local = 0.00121592, global = 6.19022e-05, cumulative = 0.012202
smoothSolver:  Solving for omega, Initial residual = 0.000988299, Final residual = 8.09037e-05, No Iterations 5
smoothSolver:  Solving for k, Initial residual = 0.0152596, Final residual = 0.00122644, No Iterations 6
ExecutionTime = 0.85 s  ClockTime = 0 s

scalarTransport execute: age
smoothSolver:  Solving for age, Initial residual = 0.0178813, Final residual = 0.00173602, No Iterations 9

Time = 68

smoothSolver:  Solving for Ux, Initial residual = 0.0149046, Final residual = 0.00109087, No Iterations 6
smoothSolver:  Solving for Uy, Initial residual = 0.00760713, Final residual = 0.000595394, No Iterations 6
GAMG:  Solving for p, Initial residual = 0.0067393, Final residual = 0.000546616, No Iterations 3
time step continuity errors : sum local = 0.0012379, global = 6.5471e-05, cumulative = 0.0122675
smoothSolver:  Solving for omega, Initial residual = 0.000970347, Final residual = 7.84912e-05, No Iterations 5
smoothSolver:  Solving for k, Initial residual = 0.0149442, Final residual = 0.0011995, No Iterations 6
ExecutionTime = 0.86 s  ClockTime = 0 s

scalarTransport execute: age
smoothSolver:  Solving for age, Initial residual = 0.01732, Final residual = 0.0017019, No Iterations 9

Time = 69

smoothSolver:  Solving for Ux, Initial residual = 0.0147113, Final residual = 0.00107645, No Iterations 6
smoothSolver:  Solving for Uy, Initial residual = 0.00746062, Final residual = 0.000583297, No Iterations 6
GAMG:  Solving for p, Initial residual = 0.00676935, Final residual = 0.000535394, No Iterations 3
time step continuity errors : sum local = 0.00120912, global = 6.86087e-05, cumulative = 0.0123361
smoothSolver:  Solving for omega, Initial residual = 0.000953651, Final residual = 7.62127e-05, No Iterations 5
smoothSolver:  Solving for k, Initial residual = 0.0146305, Final residual = 0.00117274, No Iterations 6
ExecutionTime = 0.87 s  ClockTime = 0 s

scalarTransport execute: age
smoothSolver:  Solving for age, Initial residual = 0.0166642, Final residual = 0.00165672, No Iterations 9

Time = 70

smoothSolver:  Solving for Ux, Initial residual = 0.0145219, Final residual = 0.00106197, No Iterations 6
smoothSolver:  Solving for Uy, Initial residual = 0.00729559, Final residual = 0.000569984, No Iterations 6
GAMG:  Solving for p, Initial residual = 0.00681348, Final residual = 0.000511757, No Iterations 3
time step continuity errors : sum local = 0.00115212, global = 6.84252e-05, cumulative = 0.0124045
smoothSolver:  Solving for omega, Initial residual = 0.000938318, Final residual = 7.40156e-05, No Iterations 5
smoothSolver:  Solving for k, Initial residual = 0.0143205, Final residual = 0.00114616, No Iterations 6
ExecutionTime = 0.88 s  ClockTime = 0 s

scalarTransport execute: age
smoothSolver:  Solving for age, Initial residual = 0.0159965, Final residual = 0.00142914, No Iterations 10

Time = 71

smoothSolver:  Solving for Ux, Initial residual = 0.0143339, Final residual = 0.00104749, No Iterations 6
smoothSolver:  Solving for Uy, Initial residual = 0.00712131, Final residual = 0.000555531, No Iterations 6
GAMG:  Solving for p, Initial residual = 0.00693939, Final residual = 0.000520131, No Iterations 3
time step continuity errors : sum local = 0.00116707, global = 6.74592e-05, cumulative = 0.012472
smoothSolver:  Solving for omega, Initial residual = 0.000920842, Final residual = 7.19259e-05, No Iterations 5
smoothSolver:  Solving for k, Initial residual = 0.0140116, Final residual = 0.00111963, No Iterations 6
ExecutionTime = 0.9 s  ClockTime = 0 s

scalarTransport execute: age
smoothSolver:  Solving for age, Initial residual = 0.015218, Final residual = 0.00140474, No Iterations 10

Time = 72

smoothSolver:  Solving for Ux, Initial residual = 0.014114, Final residual = 0.00103081, No Iterations 6
smoothSolver:  Solving for Uy, Initial residual = 0.00696841, Final residual = 0.000543543, No Iterations 6
GAMG:  Solving for p, Initial residual = 0.00710059, Final residual = 0.000488102, No Iterations 3
time step continuity errors : sum local = 0.0010928, global = 6.71675e-05, cumulative = 0.0125391
smoothSolver:  Solving for omega, Initial residual = 0.000906228, Final residual = 6.99264e-05, No Iterations 5
smoothSolver:  Solving for k, Initial residual = 0.0137043, Final residual = 0.00109329, No Iterations 6
ExecutionTime = 0.91 s  ClockTime = 1 s

scalarTransport execute: age
smoothSolver:  Solving for age, Initial residual = 0.0144879, Final residual = 0.0013735, No Iterations 10

Time = 73

smoothSolver:  Solving for Ux, Initial residual = 0.0138849, Final residual = 0.00101335, No Iterations 6
smoothSolver:  Solving for Uy, Initial residual = 0.00681839, Final residual = 0.000532316, No Iterations 6
GAMG:  Solving for p, Initial residual = 0.00718981, Final residual = 0.000482373, No Iterations 3
time step continuity errors : sum local = 0.00107804, global = 6.652e-05, cumulative = 0.0126057
smoothSolver:  Solving for omega, Initial residual = 0.000890711, Final residual = 6.79669e-05, No Iterations 5
smoothSolver:  Solving for k, Initial residual = 0.0133983, Final residual = 0.001067, No Iterations 6
ExecutionTime = 0.92 s  ClockTime = 1 s

scalarTransport execute: age
smoothSolver:  Solving for age, Initial residual = 0.0138559, Final residual = 0.00134235, No Iterations 10

Time = 74

smoothSolver:  Solving for Ux, Initial residual = 0.0136505, Final residual = 0.000995281, No Iterations 6
smoothSolver:  Solving for Uy, Initial residual = 0.00669779, Final residual = 0.000523348, No Iterations 6
GAMG:  Solving for p, Initial residual = 0.00723598, Final residual = 0.000452054, No Iterations 3
time step continuity errors : sum local = 0.0010088, global = 6.55443e-05, cumulative = 0.0126712
smoothSolver:  Solving for omega, Initial residual = 0.000874176, Final residual = 6.60402e-05, No Iterations 5
smoothSolver:  Solving for k, Initial residual = 0.0130922, Final residual = 0.00104072, No Iterations 6
ExecutionTime = 0.93 s  ClockTime = 1 s

scalarTransport execute: age
smoothSolver:  Solving for age, Initial residual = 0.0132079, Final residual = 0.00131667, No Iterations 10

Time = 75

smoothSolver:  Solving for Ux, Initial residual = 0.0134047, Final residual = 0.000976683, No Iterations 6
smoothSolver:  Solving for Uy, Initial residual = 0.00659493, Final residual = 0.000515347, No Iterations 6
GAMG:  Solving for p, Initial residual = 0.00725553, Final residual = 0.000445659, No Iterations 3
time step continuity errors : sum local = 0.000993814, global = 6.08682e-05, cumulative = 0.0127321
smoothSolver:  Solving for omega, Initial residual = 0.000858622, Final residual = 6.41707e-05, No Iterations 5
smoothSolver:  Solving for k, Initial residual = 0.0127866, Final residual = 0.00101455, No Iterations 6
ExecutionTime = 0.95 s  ClockTime = 1 s

scalarTransport execute: age
smoothSolver:  Solving for age, Initial residual = 0.0126696, Final residual = 0.00114139, No Iterations 11

Time = 76

smoothSolver:  Solving for Ux, Initial residual = 0.0131565, Final residual = 0.000957866, No Iterations 6
smoothSolver:  Solving for Uy, Initial residual = 0.00650115, Final residual = 0.000508199, No Iterations 6
GAMG:  Solving for p, Initial residual = 0.0072237, Final residual = 0.00042452, No Iterations 3
time step continuity errors : sum local = 0.000946429, global = 5.89799e-05, cumulative = 0.012791
smoothSolver:  Solving for omega, Initial residual = 0.000843445, Final residual = 6.23156e-05, No Iterations 5
smoothSolver:  Solving for k, Initial residual = 0.0124824, Final residual = 0.000988443, No Iterations 6
ExecutionTime = 0.96 s  ClockTime = 1 s

scalarTransport execute: age
smoothSolver:  Solving for age, Initial residual = 0.0121519, Final residual = 0.00112046, No Iterations 11

Time = 77

smoothSolver:  Solving for Ux, Initial residual = 0.012899, Final residual = 0.000938358, No Iterations 6
smoothSolver:  Solving for Uy, Initial residual = 0.00641767, Final residual = 0.000501456, No Iterations 6
GAMG:  Solving for p, Initial residual = 0.00715128, Final residual = 0.00041703, No Iterations 3
time step continuity errors : sum local = 0.000929156, global = 5.72233e-05, cumulative = 0.0128483
smoothSolver:  Solving for omega, Initial residual = 0.000827078, Final residual = 6.0487e-05, No Iterations 5
smoothSolver:  Solving for k, Initial residual = 0.0121787, Final residual = 0.000962488, No Iterations 6
ExecutionTime = 0.97 s  ClockTime = 1 s

scalarTransport execute: age
smoothSolver:  Solving for age, Initial residual = 0.0116763, Final residual = 0.00110101, No Iterations 11

Time = 78

smoothSolver:  Solving for Ux, Initial residual = 0.0126335, Final residual = 0.000918442, No Iterations 6
smoothSolver:  Solving for Uy, Initial residual = 0.00633602, Final residual = 0.000495088, No Iterations 6
GAMG:  Solving for p, Initial residual = 0.00703132, Final residual = 0.000407844, No Iterations 3
time step continuity errors : sum local = 0.000907929, global = 5.5617e-05, cumulative = 0.0129039
smoothSolver:  Solving for omega, Initial residual = 0.000811057, Final residual = 5.86565e-05, No Iterations 5
smoothSolver:  Solving for k, Initial residual = 0.0118769, Final residual = 0.000936705, No Iterations 6
ExecutionTime = 0.98 s  ClockTime = 1 s

scalarTransport execute: age
smoothSolver:  Solving for age, Initial residual = 0.0112321, Final residual = 0.00108625, No Iterations 11

Time = 79

smoothSolver:  Solving for Ux, Initial residual = 0.0123646, Final residual = 0.000898003, No Iterations 6
smoothSolver:  Solving for Uy, Initial residual = 0.00625585, Final residual = 0.000488793, No Iterations 6
GAMG:  Solving for p, Initial residual = 0.00688936, Final residual = 0.000402499, No Iterations 3
time step continuity errors : sum local = 0.000895425, global = 5.40339e-05, cumulative = 0.0129579
smoothSolver:  Solving for omega, Initial residual = 0.000793573, Final residual = 5.68451e-05, No Iterations 5
smoothSolver:  Solving for k, Initial residual = 0.0115778, Final residual = 0.000911168, No Iterations 6
ExecutionTime = 0.99 s  ClockTime = 1 s

scalarTransport execute: age
smoothSolver:  Solving for age, Initial residual = 0.0108637, Final residual = 0.00107698, No Iterations 11

Time = 80

smoothSolver:  Solving for Ux, Initial residual = 0.0120937, Final residual = 0.0008772, No Iterations 6
smoothSolver:  Solving for Uy, Initial residual = 0.00617561, Final residual = 0.000482317, No Iterations 6
GAMG:  Solving for p, Initial residual = 0.00676255, Final residual = 0.00039764, No Iterations 3
time step continuity errors : sum local = 0.000883819, global = 5.26107e-05, cumulative = 0.0130105
smoothSolver:  Solving for omega, Initial residual = 0.000777346, Final residual = 5.50623e-05, No Iterations 5
smoothSolver:  Solving for k, Initial residual = 0.0112823, Final residual = 0.000885856, No Iterations 6
ExecutionTime = 1.01 s  ClockTime = 1 s

scalarTransport execute: age
smoothSolver:  Solving for age, Initial residual = 0.0105385, Final residual = 0.000945143, No Iterations 12

Time = 81

smoothSolver:  Solving for Ux, Initial residual = 0.0118197, Final residual = 0.000856077, No Iterations 6
smoothSolver:  Solving for Uy, Initial residual = 0.00609671, Final residual = 0.000475494, No Iterations 6
GAMG:  Solving for p, Initial residual = 0.00662345, Final residual = 0.000393488, No Iterations 3
time step continuity errors : sum local = 0.000873761, global = 5.08057e-05, cumulative = 0.0130613
smoothSolver:  Solving for omega, Initial residual = 0.000761091, Final residual = 5.33083e-05, No Iterations 5
smoothSolver:  Solving for k, Initial residual = 0.0109903, Final residual = 0.000860824, No Iterations 6
ExecutionTime = 1.02 s  ClockTime = 1 s

scalarTransport execute: age
smoothSolver:  Solving for age, Initial residual = 0.0102187, Final residual = 0.00093823, No Iterations 12

Time = 82

smoothSolver:  Solving for Ux, Initial residual = 0.0115445, Final residual = 0.000834564, No Iterations 6
smoothSolver:  Solving for Uy, Initial residual = 0.00601504, Final residual = 0.000468231, No Iterations 6
GAMG:  Solving for p, Initial residual = 0.00647153, Final residual = 0.000391404, No Iterations 3
time step continuity errors : sum local = 0.000868324, global = 4.85215e-05, cumulative = 0.0131099
smoothSolver:  Solving for omega, Initial residual = 0.000743785, Final residual = 5.15829e-05, No Iterations 5
smoothSolver:  Solving for k, Initial residual = 0.0107032, Final residual = 0.000836141, No Iterations 6
ExecutionTime = 1.03 s  ClockTime = 1 s

scalarTransport execute: age
smoothSolver:  Solving for age, Initial residual = 0.00993244, Final residual = 0.00093047, No Iterations 12

Time = 83

smoothSolver:  Solving for Ux, Initial residual = 0.0112662, Final residual = 0.000812909, No Iterations 6
smoothSolver:  Solving for Uy, Initial residual = 0.00593338, Final residual = 0.000460625, No Iterations 6
GAMG:  Solving for p, Initial residual = 0.00632754, Final residual = 0.000390152, No Iterations 3
time step continuity errors : sum local = 0.000864598, global = 4.57086e-05, cumulative = 0.0131556
smoothSolver:  Solving for omega, Initial residual = 0.000727017, Final residual = 4.9885e-05, No Iterations 5
smoothSolver:  Solving for k, Initial residual = 0.0104208, Final residual = 0.000811837, No Iterations 6
ExecutionTime = 1.04 s  ClockTime = 1 s

scalarTransport execute: age
smoothSolver:  Solving for age, Initial residual = 0.00967156, Final residual = 0.000921819, No Iterations 12

Time = 84

smoothSolver:  Solving for Ux, Initial residual = 0.0109824, Final residual = 0.000790947, No Iterations 6
smoothSolver:  Solving for Uy, Initial residual = 0.0058469, Final residual = 0.000452621, No Iterations 6
GAMG:  Solving for p, Initial residual = 0.00618703, Final residual = 0.000389553, No Iterations 3
time step continuity errors : sum local = 0.000862019, global = 4.22987e-05, cumulative = 0.0131979
smoothSolver:  Solving for omega, Initial residual = 0.000711333, Final residual = 4.82166e-05, No Iterations 5
smoothSolver:  Solving for k, Initial residual = 0.0101435, Final residual = 0.000787907, No Iterations 6
ExecutionTime = 1.05 s  ClockTime = 1 s

scalarTransport execute: age
smoothSolver:  Solving for age, Initial residual = 0.00941669, Final residual = 0.000911984, No Iterations 12

Time = 85

smoothSolver:  Solving for Ux, Initial residual = 0.0106952, Final residual = 0.000768528, No Iterations 6
smoothSolver:  Solving for Uy, Initial residual = 0.00576053, Final residual = 0.000444319, No Iterations 6
GAMG:  Solving for p, Initial residual = 0.00606301, Final residual = 0.000374325, No Iterations 3
time step continuity errors : sum local = 0.000827059, global = 3.80151e-05, cumulative = 0.0132359
smoothSolver:  Solving for omega, Initial residual = 0.000696616, Final residual = 4.65887e-05, No Iterations 5
smoothSolver:  Solving for k, Initial residual = 0.00987156, Final residual = 0.000764331, No Iterations 6
ExecutionTime = 1.07 s  ClockTime = 1 s

scalarTransport execute: age
smoothSolver:  Solving for age, Initial residual = 0.00917737, Final residual = 0.000900787, No Iterations 12

Time = 86

smoothSolver:  Solving for Ux, Initial residual = 0.0104102, Final residual = 0.000746353, No Iterations 6
smoothSolver:  Solving for Uy, Initial residual = 0.00566891, Final residual = 0.000435449, No Iterations 6
GAMG:  Solving for p, Initial residual = 0.00600306, Final residual = 0.00037392, No Iterations 3
time step continuity errors : sum local = 0.000824539, global = 3.37464e-05, cumulative = 0.0132696
smoothSolver:  Solving for omega, Initial residual = 0.000681638, Final residual = 4.50156e-05, No Iterations 5
smoothSolver:  Solving for k, Initial residual = 0.00960371, Final residual = 0.000741085, No Iterations 6
ExecutionTime = 1.08 s  ClockTime = 1 s

scalarTransport execute: age
smoothSolver:  Solving for age, Initial residual = 0.00894923, Final residual = 0.000888674, No Iterations 12

Time = 87

smoothSolver:  Solving for Ux, Initial residual = 0.0101131, Final residual = 0.000723362, No Iterations 6
smoothSolver:  Solving for Uy, Initial residual = 0.00558364, Final residual = 0.000426977, No Iterations 6
GAMG:  Solving for p, Initial residual = 0.00598353, Final residual = 0.000384098, No Iterations 3
time step continuity errors : sum local = 0.000845464, global = 2.87122e-05, cumulative = 0.0132983
smoothSolver:  Solving for omega, Initial residual = 0.000667741, Final residual = 4.35165e-05, No Iterations 5
smoothSolver:  Solving for k, Initial residual = 0.00934065, Final residual = 0.000718174, No Iterations 6
ExecutionTime = 1.09 s  ClockTime = 1 s

scalarTransport execute: age
smoothSolver:  Solving for age, Initial residual = 0.00872199, Final residual = 0.00076909, No Iterations 13

Time = 88

smoothSolver:  Solving for Ux, Initial residual = 0.00981381, Final residual = 0.000699673, No Iterations 6
smoothSolver:  Solving for Uy, Initial residual = 0.00550104, Final residual = 0.000418696, No Iterations 6
GAMG:  Solving for p, Initial residual = 0.00603036, Final residual = 0.000377248, No Iterations 3
time step continuity errors : sum local = 0.000829017, global = 2.40585e-05, cumulative = 0.0133224
smoothSolver:  Solving for omega, Initial residual = 0.000655769, Final residual = 4.20841e-05, No Iterations 5
smoothSolver:  Solving for k, Initial residual = 0.00908429, Final residual = 0.000695697, No Iterations 6
ExecutionTime = 1.1 s  ClockTime = 1 s

scalarTransport execute: age
smoothSolver:  Solving for age, Initial residual = 0.0084895, Final residual = 0.00075254, No Iterations 13

Time = 89

smoothSolver:  Solving for Ux, Initial residual = 0.0095225, Final residual = 0.000676625, No Iterations 6
smoothSolver:  Solving for Uy, Initial residual = 0.00541763, Final residual = 0.00041024, No Iterations 6
GAMG:  Solving for p, Initial residual = 0.00608971, Final residual = 0.000377686, No Iterations 3
time step continuity errors : sum local = 0.000828137, global = 2.1037e-05, cumulative = 0.0133434
smoothSolver:  Solving for omega, Initial residual = 0.000645643, Final residual = 4.07098e-05, No Iterations 5
smoothSolver:  Solving for k, Initial residual = 0.00883216, Final residual = 0.000673469, No Iterations 6
ExecutionTime = 1.11 s  ClockTime = 1 s

scalarTransport execute: age
smoothSolver:  Solving for age, Initial residual = 0.0082592, Final residual = 0.000735963, No Iterations 13

Time = 90

smoothSolver:  Solving for Ux, Initial residual = 0.0092276, Final residual = 0.000652881, No Iterations 6
smoothSolver:  Solving for Uy, Initial residual = 0.00534242, Final residual = 0.000402421, No Iterations 6
GAMG:  Solving for p, Initial residual = 0.00620547, Final residual = 0.000379542, No Iterations 3
time step continuity errors : sum local = 0.000830448, global = 1.70948e-05, cumulative = 0.0133605
smoothSolver:  Solving for omega, Initial residual = 0.000638157, Final residual = 3.94056e-05, No Iterations 5
smoothSolver:  Solving for k, Initial residual = 0.00858559, Final residual = 0.000651585, No Iterations 6
ExecutionTime = 1.13 s  ClockTime = 1 s

scalarTransport execute: age
smoothSolver:  Solving for age, Initial residual = 0.00804022, Final residual = 0.000719407, No Iterations 13

Time = 91

smoothSolver:  Solving for Ux, Initial residual = 0.00892946, Final residual = 0.000629025, No Iterations 6
smoothSolver:  Solving for Uy, Initial residual = 0.00527815, Final residual = 0.000395115, No Iterations 6
GAMG:  Solving for p, Initial residual = 0.00624528, Final residual = 0.000392584, No Iterations 3
time step continuity errors : sum local = 0.000855643, global = 1.42052e-05, cumulative = 0.0133747
smoothSolver:  Solving for omega, Initial residual = 0.000633802, Final residual = 6.25135e-05, No Iterations 4
smoothSolver:  Solving for k, Initial residual = 0.00834571, Final residual = 0.00063008, No Iterations 6
ExecutionTime = 1.14 s  ClockTime = 1 s

scalarTransport execute: age
smoothSolver:  Solving for age, Initial residual = 0.00783368, Final residual = 0.000704077, No Iterations 13

Time = 92

smoothSolver:  Solving for Ux, Initial residual = 0.00862151, Final residual = 0.000604829, No Iterations 6
smoothSolver:  Solving for Uy, Initial residual = 0.00522682, Final residual = 0.000388628, No Iterations 6
GAMG:  Solving for p, Initial residual = 0.00623049, Final residual = 0.000394917, No Iterations 3
time step continuity errors : sum local = 0.000857376, global = 1.05719e-05, cumulative = 0.0133853
smoothSolver:  Solving for omega, Initial residual = 0.000636219, Final residual = 6.12719e-05, No Iterations 4
smoothSolver:  Solving for k, Initial residual = 0.00811165, Final residual = 0.000608932, No Iterations 6
ExecutionTime = 1.15 s  ClockTime = 1 s

scalarTransport execute: age
smoothSolver:  Solving for age, Initial residual = 0.00767134, Final residual = 0.000688618, No Iterations 13

Time = 93

smoothSolver:  Solving for Ux, Initial residual = 0.00831978, Final residual = 0.000580802, No Iterations 6
smoothSolver:  Solving for Uy, Initial residual = 0.0051807, Final residual = 0.000382692, No Iterations 6
GAMG:  Solving for p, Initial residual = 0.00620328, Final residual = 0.000394172, No Iterations 3
time step continuity errors : sum local = 0.000851951, global = 7.91312e-06, cumulative = 0.0133932
smoothSolver:  Solving for omega, Initial residual = 0.000638413, Final residual = 5.99191e-05, No Iterations 4
smoothSolver:  Solving for k, Initial residual = 0.00788252, Final residual = 0.000588072, No Iterations 6
ExecutionTime = 1.16 s  ClockTime = 1 s

scalarTransport execute: age
smoothSolver:  Solving for age, Initial residual = 0.00748758, Final residual = 0.00067218, No Iterations 13

Time = 94

smoothSolver:  Solving for Ux, Initial residual = 0.00800889, Final residual = 0.000557019, No Iterations 6
smoothSolver:  Solving for Uy, Initial residual = 0.00514683, Final residual = 0.000377622, No Iterations 6
GAMG:  Solving for p, Initial residual = 0.00621031, Final residual = 0.00039191, No Iterations 3
time step continuity errors : sum local = 0.000843203, global = 4.79037e-06, cumulative = 0.013398
smoothSolver:  Solving for omega, Initial residual = 0.000640354, Final residual = 5.84538e-05, No Iterations 4
smoothSolver:  Solving for k, Initial residual = 0.00765754, Final residual = 0.000567495, No Iterations 6
ExecutionTime = 1.18 s  ClockTime = 1 s

scalarTransport execute: age
smoothSolver:  Solving for age, Initial residual = 0.00727179, Final residual = 0.00065446, No Iterations 13

Time = 95

smoothSolver:  Solving for Ux, Initial residual = 0.00769775, Final residual = 0.000532925, No Iterations 6
smoothSolver:  Solving for Uy, Initial residual = 0.00512543, Final residual = 0.000373182, No Iterations 6
GAMG:  Solving for p, Initial residual = 0.00616012, Final residual = 0.000388005, No Iterations 3
time step continuity errors : sum local = 0.000830504, global = 1.45682e-06, cumulative = 0.0133995
smoothSolver:  Solving for omega, Initial residual = 0.000639195, Final residual = 5.69335e-05, No Iterations 4
smoothSolver:  Solving for k, Initial residual = 0.00743765, Final residual = 0.000547239, No Iterations 6
ExecutionTime = 1.19 s  ClockTime = 1 s

scalarTransport execute: age
smoothSolver:  Solving for age, Initial residual = 0.00707365, Final residual = 0.000633087, No Iterations 13

Time = 96

smoothSolver:  Solving for Ux, Initial residual = 0.00737959, Final residual = 0.000509238, No Iterations 6
smoothSolver:  Solving for Uy, Initial residual = 0.00510972, Final residual = 0.000368958, No Iterations 6
[...]

Time = 597

smoothSolver:  Solving for Ux, Initial residual = 7.18963e-07, Final residual = 6.39488e-08, No Iterations 5
smoothSolver:  Solving for Uy, Initial residual = 6.08026e-07, Final residual = 5.98622e-08, No Iterations 5
GAMG:  Solving for p, Initial residual = 1.44202e-06, Final residual = 7.30635e-08, No Iterations 3
time step continuity errors : sum local = 1.30356e-07, global = 1.06555e-08, cumulative = 0.0195052
smoothSolver:  Solving for omega, Initial residual = 6.34012e-08, Final residual = 5.98188e-09, No Iterations 4
smoothSolver:  Solving for k, Initial residual = 1.16857e-07, Final residual = 8.932e-09, No Iterations 5
ExecutionTime = 7.05 s  ClockTime = 7 s

scalarTransport execute: age
smoothSolver:  Solving for age, Initial residual = 0.000323473, Final residual = 3.00686e-05, No Iterations 15

Time = 598

smoothSolver:  Solving for Ux, Initial residual = 7.06681e-07, Final residual = 6.23933e-08, No Iterations 5
smoothSolver:  Solving for Uy, Initial residual = 5.96875e-07, Final residual = 5.90112e-08, No Iterations 5
GAMG:  Solving for p, Initial residual = 1.35274e-06, Final residual = 1.17387e-07, No Iterations 2
time step continuity errors : sum local = 2.09436e-07, global = 1.44068e-08, cumulative = 0.0195052
smoothSolver:  Solving for omega, Initial residual = 6.15847e-08, Final residual = 9.7992e-09, No Iterations 3
smoothSolver:  Solving for k, Initial residual = 1.15155e-07, Final residual = 8.77913e-09, No Iterations 5
ExecutionTime = 7.06 s  ClockTime = 7 s

scalarTransport execute: age
smoothSolver:  Solving for age, Initial residual = 0.00032283, Final residual = 3.00101e-05, No Iterations 15

Time = 599

smoothSolver:  Solving for Ux, Initial residual = 6.98416e-07, Final residual = 6.21166e-08, No Iterations 5
smoothSolver:  Solving for Uy, Initial residual = 5.9076e-07, Final residual = 5.81635e-08, No Iterations 5
GAMG:  Solving for p, Initial residual = 1.40064e-06, Final residual = 7.09818e-08, No Iterations 3
time step continuity errors : sum local = 1.26643e-07, global = 1.03572e-08, cumulative = 0.0195052
smoothSolver:  Solving for omega, Initial residual = 6.21629e-08, Final residual = 9.87222e-09, No Iterations 3
smoothSolver:  Solving for k, Initial residual = 1.13766e-07, Final residual = 8.69472e-09, No Iterations 5
ExecutionTime = 7.07 s  ClockTime = 7 s

scalarTransport execute: age
smoothSolver:  Solving for age, Initial residual = 0.000322184, Final residual = 2.99504e-05, No Iterations 15

Time = 600

smoothSolver:  Solving for Ux, Initial residual = 6.86318e-07, Final residual = 6.05846e-08, No Iterations 5
smoothSolver:  Solving for Uy, Initial residual = 5.80024e-07, Final residual = 5.73458e-08, No Iterations 5
GAMG:  Solving for p, Initial residual = 1.31444e-06, Final residual = 1.14061e-07, No Iterations 2
time step continuity errors : sum local = 2.03503e-07, global = 1.39946e-08, cumulative = 0.0195052
smoothSolver:  Solving for omega, Initial residual = 6.1392e-08, Final residual = 9.82585e-09, No Iterations 3
smoothSolver:  Solving for k, Initial residual = 1.12108e-07, Final residual = 8.54762e-09, No Iterations 5
ExecutionTime = 7.08 s  ClockTime = 7 s

scalarTransport execute: age
smoothSolver:  Solving for age, Initial residual = 0.000321547, Final residual = 2.98924e-05, No Iterations 15

Time = 601

smoothSolver:  Solving for Ux, Initial residual = 6.7835e-07, Final residual = 6.03189e-08, No Iterations 5
smoothSolver:  Solving for Uy, Initial residual = 5.74138e-07, Final residual = 5.65284e-08, No Iterations 5
GAMG:  Solving for p, Initial residual = 1.3608e-06, Final residual = 6.89719e-08, No Iterations 3
time step continuity errors : sum local = 1.23057e-07, global = 1.00663e-08, cumulative = 0.0195052
smoothSolver:  Solving for omega, Initial residual = 6.15399e-08, Final residual = 9.82969e-09, No Iterations 3
smoothSolver:  Solving for k, Initial residual = 1.10651e-07, Final residual = 8.45776e-09, No Iterations 5
ExecutionTime = 7.09 s  ClockTime = 7 s

scalarTransport execute: age
smoothSolver:  Solving for age, Initial residual = 0.000320906, Final residual = 2.98331e-05, No Iterations 15

Time = 602

smoothSolver:  Solving for Ux, Initial residual = 6.66593e-07, Final residual = 5.88285e-08, No Iterations 5
smoothSolver:  Solving for Uy, Initial residual = 5.6372e-07, Final residual = 5.57354e-08, No Iterations 5
GAMG:  Solving for p, Initial residual = 1.27695e-06, Final residual = 1.10889e-07, No Iterations 2
time step continuity errors : sum local = 1.97843e-07, global = 1.35874e-08, cumulative = 0.0195053
smoothSolver:  Solving for omega, Initial residual = 6.05186e-08, Final residual = 9.73483e-09, No Iterations 3
smoothSolver:  Solving for k, Initial residual = 1.08975e-07, Final residual = 8.30955e-09, No Iterations 5
ExecutionTime = 7.1 s  ClockTime = 7 s

scalarTransport execute: age
smoothSolver:  Solving for age, Initial residual = 0.000320274, Final residual = 2.97754e-05, No Iterations 15

Time = 603

smoothSolver:  Solving for Ux, Initial residual = 6.58859e-07, Final residual = 5.85712e-08, No Iterations 5
smoothSolver:  Solving for Uy, Initial residual = 5.58039e-07, Final residual = 5.49451e-08, No Iterations 5
GAMG:  Solving for p, Initial residual = 1.32227e-06, Final residual = 6.70295e-08, No Iterations 3
time step continuity errors : sum local = 1.19591e-07, global = 9.78244e-09, cumulative = 0.0195053
smoothSolver:  Solving for omega, Initial residual = 6.04677e-08, Final residual = 9.70059e-09, No Iterations 3
smoothSolver:  Solving for k, Initial residual = 1.07518e-07, Final residual = 8.21813e-09, No Iterations 5
ExecutionTime = 7.12 s  ClockTime = 7 s

scalarTransport execute: age
smoothSolver:  Solving for age, Initial residual = 0.000319639, Final residual = 2.97165e-05, No Iterations 15

Time = 604

smoothSolver:  Solving for Ux, Initial residual = 6.47419e-07, Final residual = 5.71222e-08, No Iterations 5
smoothSolver:  Solving for Uy, Initial residual = 5.47908e-07, Final residual = 5.41741e-08, No Iterations 5
GAMG:  Solving for p, Initial residual = 1.24069e-06, Final residual = 1.07817e-07, No Iterations 2
time step continuity errors : sum local = 1.92364e-07, global = 1.31919e-08, cumulative = 0.0195053
smoothSolver:  Solving for omega, Initial residual = 5.93318e-08, Final residual = 9.5787e-09, No Iterations 3
smoothSolver:  Solving for k, Initial residual = 1.05853e-07, Final residual = 8.0708e-09, No Iterations 5
ExecutionTime = 7.13 s  ClockTime = 7 s

scalarTransport execute: age
smoothSolver:  Solving for age, Initial residual = 0.000319012, Final residual = 2.96591e-05, No Iterations 15

Time = 605

smoothSolver:  Solving for Ux, Initial residual = 6.39898e-07, Final residual = 5.68727e-08, No Iterations 5
smoothSolver:  Solving for Uy, Initial residual = 5.42406e-07, Final residual = 5.34066e-08, No Iterations 5
GAMG:  Solving for p, Initial residual = 1.285e-06, Final residual = 6.51404e-08, No Iterations 3
time step continuity errors : sum local = 1.16221e-07, global = 9.50503e-09, cumulative = 0.0195053
smoothSolver:  Solving for omega, Initial residual = 5.91743e-08, Final residual = 9.52204e-09, No Iterations 3
smoothSolver:  Solving for k, Initial residual = 1.0441e-07, Final residual = 7.97915e-09, No Iterations 5
ExecutionTime = 7.14 s  ClockTime = 7 s

scalarTransport execute: age
smoothSolver:  Solving for age, Initial residual = 0.000318381, Final residual = 2.96007e-05, No Iterations 15

Time = 606

smoothSolver:  Solving for Ux, Initial residual = 6.28776e-07, Final residual = 5.54661e-08, No Iterations 5
smoothSolver:  Solving for Uy, Initial residual = 5.3252e-07, Final residual = 5.26534e-08, No Iterations 5
GAMG:  Solving for p, Initial residual = 1.2056e-06, Final residual = 1.04818e-07, No Iterations 2
time step continuity errors : sum local = 1.87013e-07, global = 1.28072e-08, cumulative = 0.0195053
smoothSolver:  Solving for omega, Initial residual = 5.7988e-08, Final residual = 9.38534e-09, No Iterations 3
smoothSolver:  Solving for k, Initial residual = 1.02767e-07, Final residual = 7.83353e-09, No Iterations 5
ExecutionTime = 7.15 s  ClockTime = 7 s

scalarTransport execute: age
smoothSolver:  Solving for age, Initial residual = 0.000317758, Final residual = 2.95436e-05, No Iterations 15

Time = 607

smoothSolver:  Solving for Ux, Initial residual = 6.21461e-07, Final residual = 5.52248e-08, No Iterations 5
smoothSolver:  Solving for Uy, Initial residual = 5.27153e-07, Final residual = 5.19046e-08, No Iterations 5
GAMG:  Solving for p, Initial residual = 1.24879e-06, Final residual = 6.32932e-08, No Iterations 3
time step continuity errors : sum local = 1.12925e-07, global = 9.23473e-09, cumulative = 0.0195053
smoothSolver:  Solving for omega, Initial residual = 5.77727e-08, Final residual = 9.31577e-09, No Iterations 3
smoothSolver:  Solving for k, Initial residual = 1.01344e-07, Final residual = 7.74253e-09, No Iterations 5
ExecutionTime = 7.16 s  ClockTime = 7 s

scalarTransport execute: age
smoothSolver:  Solving for age, Initial residual = 0.000317131, Final residual = 2.94855e-05, No Iterations 15

Time = 608

smoothSolver:  Solving for Ux, Initial residual = 6.10662e-07, Final residual = 5.38617e-08, No Iterations 5
smoothSolver:  Solving for Uy, Initial residual = 5.17476e-07, Final residual = 5.11658e-08, No Iterations 5
GAMG:  Solving for p, Initial residual = 1.17151e-06, Final residual = 1.01882e-07, No Iterations 2
time step continuity errors : sum local = 1.81775e-07, global = 1.24339e-08, cumulative = 0.0195053
smoothSolver:  Solving for omega, Initial residual = 5.65667e-08, Final residual = 9.1714e-09, No Iterations 3
smoothSolver:  Solving for k, Initial residual = 9.97273e-08, Final residual = 7.59943e-09, No Iterations 5
ExecutionTime = 7.17 s  ClockTime = 7 s

scalarTransport execute: age
smoothSolver:  Solving for age, Initial residual = 0.000316512, Final residual = 2.94287e-05, No Iterations 15

Time = 609

smoothSolver:  Solving for Ux, Initial residual = 6.03554e-07, Final residual = 5.36289e-08, No Iterations 5
smoothSolver:  Solving for Uy, Initial residual = 5.12217e-07, Final residual = 5.04334e-08, No Iterations 5
GAMG:  Solving for p, Initial residual = 1.21347e-06, Final residual = 6.14848e-08, No Iterations 3
time step continuity errors : sum local = 1.09699e-07, global = 8.97139e-09, cumulative = 0.0195053
smoothSolver:  Solving for omega, Initial residual = 5.63213e-08, Final residual = 9.09453e-09, No Iterations 3
smoothSolver:  Solving for k, Initial residual = 9.83302e-08, Final residual = 7.50995e-09, No Iterations 5
ExecutionTime = 7.19 s  ClockTime = 7 s

scalarTransport execute: age
smoothSolver:  Solving for age, Initial residual = 0.000315889, Final residual = 2.93709e-05, No Iterations 15

Time = 610

smoothSolver:  Solving for Ux, Initial residual = 5.93085e-07, Final residual = 5.23095e-08, No Iterations 5
smoothSolver:  Solving for Uy, Initial residual = 5.02744e-07, Final residual = 4.9709e-08, No Iterations 5
GAMG:  Solving for p, Initial residual = 1.13828e-06, Final residual = 9.90058e-08, No Iterations 2
time step continuity errors : sum local = 1.76643e-07, global = 1.20719e-08, cumulative = 0.0195053
smoothSolver:  Solving for omega, Initial residual = 5.51111e-08, Final residual = 8.94672e-09, No Iterations 3
smoothSolver:  Solving for k, Initial residual = 9.675e-08, Final residual = 7.37029e-09, No Iterations 5
ExecutionTime = 7.2 s  ClockTime = 7 s

scalarTransport execute: age
smoothSolver:  Solving for age, Initial residual = 0.000315275, Final residual = 2.93145e-05, No Iterations 15

Time = 611

smoothSolver:  Solving for Ux, Initial residual = 5.86191e-07, Final residual = 5.20854e-08, No Iterations 5
smoothSolver:  Solving for Uy, Initial residual = 4.97592e-07, Final residual = 4.8993e-08, No Iterations 5
GAMG:  Solving for p, Initial residual = 1.17899e-06, Final residual = 5.97173e-08, No Iterations 3
time step continuity errors : sum local = 1.06546e-07, global = 8.7151e-09, cumulative = 0.0195053
smoothSolver:  Solving for omega, Initial residual = 5.48513e-08, Final residual = 8.86589e-09, No Iterations 3
smoothSolver:  Solving for k, Initial residual = 9.53859e-08, Final residual = 7.28319e-09, No Iterations 5
ExecutionTime = 7.21 s  ClockTime = 7 s

scalarTransport execute: age
smoothSolver:  Solving for age, Initial residual = 0.000314658, Final residual = 2.92571e-05, No Iterations 15

Time = 612

smoothSolver:  Solving for Ux, Initial residual = 5.76055e-07, Final residual = 5.08086e-08, No Iterations 5
smoothSolver:  Solving for Uy, Initial residual = 4.8834e-07, Final residual = 4.82849e-08, No Iterations 5
GAMG:  Solving for p, Initial residual = 1.1059e-06, Final residual = 9.61959e-08, No Iterations 2
time step continuity errors : sum local = 1.7163e-07, global = 1.17216e-08, cumulative = 0.0195054
smoothSolver:  Solving for omega, Initial residual = 5.36464e-08, Final residual = 8.71725e-09, No Iterations 3
smoothSolver:  Solving for k, Initial residual = 9.38502e-08, Final residual = 7.14776e-09, No Iterations 5
ExecutionTime = 7.22 s  ClockTime = 7 s

scalarTransport execute: age
smoothSolver:  Solving for age, Initial residual = 0.000314048, Final residual = 2.92011e-05, No Iterations 15

Time = 613

smoothSolver:  Solving for Ux, Initial residual = 5.69384e-07, Final residual = 5.05931e-08, No Iterations 5
smoothSolver:  Solving for Uy, Initial residual = 4.83312e-07, Final residual = 4.75865e-08, No Iterations 5
GAMG:  Solving for p, Initial residual = 1.14539e-06, Final residual = 5.79966e-08, No Iterations 3
time step continuity errors : sum local = 1.03476e-07, global = 8.46635e-09, cumulative = 0.0195054
smoothSolver:  Solving for omega, Initial residual = 5.33811e-08, Final residual = 8.63447e-09, No Iterations 3
smoothSolver:  Solving for k, Initial residual = 9.25271e-08, Final residual = 7.06371e-09, No Iterations 5
ExecutionTime = 7.23 s  ClockTime = 7 s

scalarTransport execute: age
smoothSolver:  Solving for age, Initial residual = 0.000313434, Final residual = 2.9144e-05, No Iterations 15

Time = 614

smoothSolver:  Solving for Ux, Initial residual = 5.59578e-07, Final residual = 4.9357e-08, No Iterations 5
smoothSolver:  Solving for Uy, Initial residual = 4.74311e-07, Final residual = 4.68977e-08, No Iterations 5
GAMG:  Solving for p, Initial residual = 1.07439e-06, Final residual = 9.3462e-08, No Iterations 2
time step continuity errors : sum local = 1.66752e-07, global = 1.13841e-08, cumulative = 0.0195054
smoothSolver:  Solving for omega, Initial residual = 5.21878e-08, Final residual = 8.48654e-09, No Iterations 3
smoothSolver:  Solving for k, Initial residual = 9.10442e-08, Final residual = 6.93306e-09, No Iterations 5
ExecutionTime = 7.24 s  ClockTime = 7 s

scalarTransport execute: age
smoothSolver:  Solving for age, Initial residual = 0.000312827, Final residual = 2.90884e-05, No Iterations 15

Time = 615

smoothSolver:  Solving for Ux, Initial residual = 5.53131e-07, Final residual = 4.91496e-08, No Iterations 5
smoothSolver:  Solving for Uy, Initial residual = 4.6943e-07, Final residual = 4.62186e-08, No Iterations 5
GAMG:  Solving for p, Initial residual = 1.11273e-06, Final residual = 5.63281e-08, No Iterations 3
time step continuity errors : sum local = 1.00499e-07, global = 8.22554e-09, cumulative = 0.0195054
smoothSolver:  Solving for omega, Initial residual = 5.19218e-08, Final residual = 8.4032e-09, No Iterations 3
smoothSolver:  Solving for k, Initial residual = 8.97687e-08, Final residual = 6.85259e-09, No Iterations 5
ExecutionTime = 7.25 s  ClockTime = 7 s

scalarTransport execute: age
smoothSolver:  Solving for age, Initial residual = 0.000312219, Final residual = 2.90318e-05, No Iterations 15

Time = 616

smoothSolver:  Solving for Ux, Initial residual = 5.43641e-07, Final residual = 4.79515e-08, No Iterations 5
smoothSolver:  Solving for Uy, Initial residual = 4.60704e-07, Final residual = 4.55514e-08, No Iterations 5
GAMG:  Solving for p, Initial residual = 1.04378e-06, Final residual = 9.08086e-08, No Iterations 2
time step continuity errors : sum local = 1.62018e-07, global = 1.10598e-08, cumulative = 0.0195054
smoothSolver:  Solving for omega, Initial residual = 5.07471e-08, Final residual = 8.25712e-09, No Iterations 3
smoothSolver:  Solving for k, Initial residual = 8.83425e-08, Final residual = 6.7269e-09, No Iterations 5
ExecutionTime = 7.27 s  ClockTime = 7 s

scalarTransport execute: age
smoothSolver:  Solving for age, Initial residual = 0.000311619, Final residual = 2.89766e-05, No Iterations 15

Time = 617

smoothSolver:  Solving for Ux, Initial residual = 5.37407e-07, Final residual = 4.77517e-08, No Iterations 5
smoothSolver:  Solving for Uy, Initial residual = 4.55981e-07, Final residual = 4.48929e-08, No Iterations 5
GAMG:  Solving for p, Initial residual = 1.08104e-06, Final residual = 5.47153e-08, No Iterations 3
time step continuity errors : sum local = 9.76215e-08, global = 7.99252e-09, cumulative = 0.0195054
smoothSolver:  Solving for omega, Initial residual = 5.04843e-08, Final residual = 8.17426e-09, No Iterations 3
smoothSolver:  Solving for k, Initial residual = 8.71175e-08, Final residual = 6.65009e-09, No Iterations 5
ExecutionTime = 7.28 s  ClockTime = 7 s

scalarTransport execute: age
smoothSolver:  Solving for age, Initial residual = 0.000311016, Final residual = 2.89205e-05, No Iterations 15

Time = 618

smoothSolver:  Solving for Ux, Initial residual = 5.28211e-07, Final residual = 4.65887e-08, No Iterations 5
smoothSolver:  Solving for Uy, Initial residual = 4.47539e-07, Final residual = 4.42479e-08, No Iterations 5
GAMG:  Solving for p, Initial residual = 1.01411e-06, Final residual = 8.82372e-08, No Iterations 2
time step continuity errors : sum local = 1.5743e-07, global = 1.0748e-08, cumulative = 0.0195054
smoothSolver:  Solving for omega, Initial residual = 4.93335e-08, Final residual = 8.03082e-09, No Iterations 3
smoothSolver:  Solving for k, Initial residual = 8.57491e-08, Final residual = 6.52941e-09, No Iterations 5
ExecutionTime = 7.29 s  ClockTime = 7 s

scalarTransport execute: age
smoothSolver:  Solving for age, Initial residual = 0.00031042, Final residual = 2.88657e-05, No Iterations 15

Time = 619

smoothSolver:  Solving for Ux, Initial residual = 5.22176e-07, Final residual = 4.63955e-08, No Iterations 5
smoothSolver:  Solving for Uy, Initial residual = 4.42973e-07, Final residual = 4.36101e-08, No Iterations 5
GAMG:  Solving for p, Initial residual = 1.05035e-06, Final residual = 5.31581e-08, No Iterations 3
time step continuity errors : sum local = 9.48433e-08, global = 7.76683e-09, cumulative = 0.0195054
smoothSolver:  Solving for omega, Initial residual = 4.90747e-08, Final residual = 7.94917e-09, No Iterations 3
smoothSolver:  Solving for k, Initial residual = 8.4575e-08, Final residual = 6.45622e-09, No Iterations 5
ExecutionTime = 7.3 s  ClockTime = 7 s

scalarTransport execute: age
smoothSolver:  Solving for age, Initial residual = 0.000309822, Final residual = 2.88101e-05, No Iterations 15

Time = 620

smoothSolver:  Solving for Ux, Initial residual = 5.13248e-07, Final residual = 4.52652e-08, No Iterations 5
smoothSolver:  Solving for Uy, Initial residual = 4.34808e-07, Final residual = 4.29868e-08, No Iterations 5
GAMG:  Solving for p, Initial residual = 9.85332e-07, Final residual = 8.5744e-08, No Iterations 2
time step continuity errors : sum local = 1.52982e-07, global = 1.0447e-08, cumulative = 0.0195054
smoothSolver:  Solving for omega, Initial residual = 4.79523e-08, Final residual = 7.80891e-09, No Iterations 3
smoothSolver:  Solving for k, Initial residual = 8.32629e-08, Final residual = 6.34039e-09, No Iterations 5
ExecutionTime = 7.31 s  ClockTime = 7 s


SIMPLE solution converged in 620 iterations

scalarTransport execute: age
smoothSolver:  Solving for age, Initial residual = 0.00030923, Final residual = 2.87557e-05, No Iterations 15

End

