/*---------------------------------------------------------------------------*\
| =========                 |                                                 |
| \\      /  F ield         | OpenFOAM: The Open Source CFD Toolbox           |
|  \\    /   O peration     | Version:  v2012                                 |
|   \\  /    A nd           | Website:  www.openfoam.com                      |
|    \\/     M anipulation  |                                                 |
\*---------------------------------------------------------------------------*/
Build  : _7bdb509494-20201222 OPENFOAM=2012
Arch   : "LSB;label=32;scalar=64"
Exec   : blockMesh
Date   : Feb 23 2023
Time   : 10:30:33
Host   : johnsDesktop
PID    : 32551
I/O    : uncollated
Case   : /home/john/of_runs/cases/0_86_722_8
nProcs : 1
trapFpe: Floating point exception trapping enabled (FOAM_SIGFPE).
fileModificationChecking : Monitoring run-time modified files using timeStampMaster (fileModificationSkew 5, maxFileModificationPolls 20)
allowSystemOperations : Allowing user-supplied system call operations

// * * * * * * * * * * * * * * * * * * * * * * * * * * * * * * * * * * * * * //
Create time

Creating block mesh from "system/blockMeshDict"
Creating block edges
No non-planar block faces defined
Creating topology blocks
Creating topology patches

Creating block mesh topology

Check topology

	Basic statistics
		Number of internal faces : 12
		Number of boundary faces : 42
		Number of defined boundary faces : 42
		Number of undefined boundary faces : 0
	Checking patch -> block consistency

Creating block offsets
Creating merge list (topological search)...
Deleting polyMesh directory "constant/polyMesh"

Creating polyMesh from blockMesh
Creating patches
Creating cells
Creating points with scale 1
    Block 0 cell size :
        i : 0.025 .. 0.025
        j : 0.02 .. 0.02
        k : 0.01 .. 0.01

    Block 1 cell size :
        i : 0.0252941 .. 0.0252941
        j : 0.02 .. 0.02
        k : 0.01 .. 0.01

    Block 2 cell size :
        i : 0.0233333 .. 0.0233333
        j : 0.02 .. 0.02
        k : 0.01 .. 0.01

    Block 3 cell size :
        i : 0.0252941 .. 0.0252941
        j : 0.02125 .. 0.02125
        k : 0.01 .. 0.01

    Block 4 cell size :
        i : 0.0233333 .. 0.0233333
        j : 0.02125 .. 0.02125
        k : 0.01 .. 0.01

    Block 5 cell size :
        i : 0.0233333 .. 0.0233333
        j : 0.0166667 .. 0.0166667
        k : 0.01 .. 0.01

    Block 6 cell size :
        i : 0.0252941 .. 0.0252941
        j : 0.02125 .. 0.02125
        k : 0.01 .. 0.01

    Block 7 cell size :
        i : 0.0233333 .. 0.0233333
        j : 0.02125 .. 0.02125
        k : 0.01 .. 0.01

    Block 8 cell size :
        i : 0.025 .. 0.025
        j : 0.02 .. 0.02
        k : 0.01 .. 0.01

    Block 9 cell size :
        i : 0.0252941 .. 0.0252941
        j : 0.02 .. 0.02
        k : 0.01 .. 0.01

    Block 10 cell size :
        i : 0.0233333 .. 0.0233333
        j : 0.02 .. 0.02
        k : 0.01 .. 0.01


There are no merge patch pairs

Writing polyMesh with 0 cellZones
----------------
Mesh Information
----------------
  boundingBox: (0 0 -0.01) (3 1.5 0)
  nPoints: 12552
  nCells: 6018
  nFaces: 24329
  nInternalFaces: 11779
----------------
Patches
----------------
  patch 0 (start: 11779 size: 10) name: inlet
  patch 1 (start: 11789 size: 10) name: outlet
  patch 2 (start: 11799 size: 423) name: walls
  patch 3 (start: 12222 size: 71) name: baffle
  patch 4 (start: 12293 size: 12036) name: frontAndBack

End

