/*---------------------------------------------------------------------------*\
| =========                 |                                                 |
| \\      /  F ield         | OpenFOAM: The Open Source CFD Toolbox           |
|  \\    /   O peration     | Version:  v2012                                 |
|   \\  /    A nd           | Website:  www.openfoam.com                      |
|    \\/     M anipulation  |                                                 |
\*---------------------------------------------------------------------------*/
Build  : _7bdb509494-20201222 OPENFOAM=2012
Arch   : "LSB;label=32;scalar=64"
Exec   : checkMesh
Date   : Feb 23 2023
Time   : 10:30:33
Host   : johnsDesktop
PID    : 32552
I/O    : uncollated
Case   : /home/john/of_runs/cases/0_86_722_8
nProcs : 1
trapFpe: Floating point exception trapping enabled (FOAM_SIGFPE).
fileModificationChecking : Monitoring run-time modified files using timeStampMaster (fileModificationSkew 5, maxFileModificationPolls 20)
allowSystemOperations : Allowing user-supplied system call operations

// * * * * * * * * * * * * * * * * * * * * * * * * * * * * * * * * * * * * * //
Create time

Create mesh for time = 0

Time = 0

Mesh stats
    points:           12552
    internal points:  0
    faces:            24329
    internal faces:   11779
    cells:            6018
    faces per cell:   6
    boundary patches: 5
    point zones:      0
    face zones:       0
    cell zones:       0

Overall number of cells of each type:
    hexahedra:     6018
    prisms:        0
    wedges:        0
    pyramids:      0
    tet wedges:    0
    tetrahedra:    0
    polyhedra:     0

Checking topology...
    Boundary definition OK.
    Cell to face addressing OK.
    Point usage OK.
    Upper triangular ordering OK.
    Face vertices OK.
    Number of regions: 1 (OK).

Checking patch topology for multiply connected surfaces...
    Patch               Faces    Points   Surface topology                  
    inlet               10       22       ok (non-closed singly connected)  
    outlet              10       22       ok (non-closed singly connected)  
    walls               423      852      ok (non-closed singly connected)  
    baffle              71       144      ok (non-closed singly connected)  
    frontAndBack        12036    12552    ok (non-closed singly connected)  

Checking faceZone topology for multiply connected surfaces...
    No faceZones found.

Checking basic cellZone addressing...
    No cellZones found.

Checking geometry...
    Overall domain bounding box (0 0 -0.01) (3 1.5 0)
    Mesh has 2 geometric (non-empty/wedge) directions (1 1 0)
    Mesh has 2 solution (non-empty) directions (1 1 0)
    All edges aligned with or perpendicular to non-empty directions.
    Boundary openness (6.74339e-20 7.91505e-18 -4.94043e-15) OK.
    Max cell openness = 1.09331e-16 OK.
    Max aspect ratio = 1.4 OK.
    Minimum face area = 0.000166667. Maximum face area = 0.0005375.  Face area magnitudes OK.
    Min volume = 3.88889e-06. Max volume = 5.375e-06.  Total volume = 0.03157.  Cell volumes OK.
    Mesh non-orthogonality Max: 0 average: 0
    Non-orthogonality check OK.
    Face pyramids OK.
    Max skewness = 1.67187e-13 OK.
    Coupled point location match (average 0) OK.

Mesh OK.

End

