/*---------------------------------------------------------------------------*\
| =========                 |                                                 |
| \\      /  F ield         | OpenFOAM: The Open Source CFD Toolbox           |
|  \\    /   O peration     | Version:  v2012                                 |
|   \\  /    A nd           | Website:  www.openfoam.com                      |
|    \\/     M anipulation  |                                                 |
\*---------------------------------------------------------------------------*/
Build  : _7bdb509494-20201222 OPENFOAM=2012
Arch   : "LSB;label=32;scalar=64"
Exec   : simpleFoam
Date   : Feb 23 2023
Time   : 10:30:34
Host   : johnsDesktop
PID    : 32553
I/O    : uncollated
Case   : /home/john/of_runs/cases/0_86_722_8
nProcs : 1
trapFpe: Floating point exception trapping enabled (FOAM_SIGFPE).
fileModificationChecking : Monitoring run-time modified files using timeStampMaster (fileModificationSkew 5, maxFileModificationPolls 20)
allowSystemOperations : Allowing user-supplied system call operations

// * * * * * * * * * * * * * * * * * * * * * * * * * * * * * * * * * * * * * //
Create time

Create mesh for time = 0


SIMPLE: convergence criteria
    field p	 tolerance 1e-06
    field U	 tolerance 1e-06
    field "(k|epsilon|omega|f|v2|age)"	 tolerance 1e-05

Reading field p

Reading field U

Reading/calculating face flux field phi

Selecting incompressible transport model Newtonian
Selecting turbulence model type RAS
Selecting RAS turbulence model kOmegaSST
Selecting patchDistMethod meshWave
RAS
{
    RASModel        kOmegaSST;
    turbulence      on;
    printCoeffs     on;
    alphaK1         0.85;
    alphaK2         1;
    alphaOmega1     0.5;
    alphaOmega2     0.856;
    gamma1          0.555556;
    gamma2          0.44;
    beta1           0.075;
    beta2           0.0828;
    betaStar        0.09;
    a1              0.31;
    b1              1;
    c1              10;
    F3              false;
    decayControl    false;
    kInf            0;
    omegaInf        0;
}

No MRF models present

No finite volume options present

Starting time loop

Selecting finite volume options type scalarSemiImplicitSource
    Source: unitySource
    - selecting all cells
    - selected 6018 cell(s) with volume 0.03157
Time = 1

smoothSolver:  Solving for Ux, Initial residual = 0, Final residual = 0, No Iterations 0
smoothSolver:  Solving for Uy, Initial residual = 1, Final residual = 0.0360333, No Iterations 2
GAMG:  Solving for p, Initial residual = 1, Final residual = 0.0887084, No Iterations 9
time step continuity errors : sum local = 0.00561979, global = -0.000211449, cumulative = -0.000211449
smoothSolver:  Solving for omega, Initial residual = 0.14165, Final residual = 0.00723732, No Iterations 3
smoothSolver:  Solving for k, Initial residual = 1, Final residual = 0.0724399, No Iterations 3
ExecutionTime = 0.06 s  ClockTime = 0 s

scalarTransport execute: age
smoothSolver:  Solving for age, Initial residual = 1, Final residual = 0.0948688, No Iterations 6

Time = 2

smoothSolver:  Solving for Ux, Initial residual = 0.429627, Final residual = 0.0370076, No Iterations 5
smoothSolver:  Solving for Uy, Initial residual = 0.242087, Final residual = 0.0166459, No Iterations 5
GAMG:  Solving for p, Initial residual = 0.0753149, Final residual = 0.00727152, No Iterations 3
time step continuity errors : sum local = 0.050678, global = 0.00360016, cumulative = 0.00338872
smoothSolver:  Solving for omega, Initial residual = 0.0771301, Final residual = 0.00604316, No Iterations 3
smoothSolver:  Solving for k, Initial residual = 0.524962, Final residual = 0.0352997, No Iterations 4
ExecutionTime = 0.08 s  ClockTime = 0 s

scalarTransport execute: age
smoothSolver:  Solving for age, Initial residual = 0.519219, Final residual = 0.0511307, No Iterations 6

Time = 3

smoothSolver:  Solving for Ux, Initial residual = 0.220284, Final residual = 0.0210564, No Iterations 4
smoothSolver:  Solving for Uy, Initial residual = 0.110091, Final residual = 0.00942959, No Iterations 4
GAMG:  Solving for p, Initial residual = 0.0660681, Final residual = 0.00541974, No Iterations 3
time step continuity errors : sum local = 0.0305541, global = 0.00427776, cumulative = 0.00766647
smoothSolver:  Solving for omega, Initial residual = 0.0289057, Final residual = 0.00204652, No Iterations 4
smoothSolver:  Solving for k, Initial residual = 0.344506, Final residual = 0.0301555, No Iterations 4
ExecutionTime = 0.09 s  ClockTime = 0 s

scalarTransport execute: age
smoothSolver:  Solving for age, Initial residual = 0.313675, Final residual = 0.0281402, No Iterations 7

Time = 4

smoothSolver:  Solving for Ux, Initial residual = 0.145832, Final residual = 0.0112809, No Iterations 4
smoothSolver:  Solving for Uy, Initial residual = 0.0830956, Final residual = 0.00675322, No Iterations 4
GAMG:  Solving for p, Initial residual = 0.0678518, Final residual = 0.00560993, No Iterations 2
time step continuity errors : sum local = 0.0258429, global = 0.0037129, cumulative = 0.0113794
smoothSolver:  Solving for omega, Initial residual = 0.0200769, Final residual = 0.00137266, No Iterations 4
smoothSolver:  Solving for k, Initial residual = 0.260798, Final residual = 0.0258788, No Iterations 4
ExecutionTime = 0.1 s  ClockTime = 0 s

scalarTransport execute: age
smoothSolver:  Solving for age, Initial residual = 0.215441, Final residual = 0.0201389, No Iterations 7

Time = 5

smoothSolver:  Solving for Ux, Initial residual = 0.124179, Final residual = 0.00987986, No Iterations 4
smoothSolver:  Solving for Uy, Initial residual = 0.0756739, Final residual = 0.00703256, No Iterations 4
GAMG:  Solving for p, Initial residual = 0.0657115, Final residual = 0.00314769, No Iterations 3
time step continuity errors : sum local = 0.0147349, global = 0.000960998, cumulative = 0.0123404
smoothSolver:  Solving for omega, Initial residual = 0.0135104, Final residual = 0.000930694, No Iterations 4
smoothSolver:  Solving for k, Initial residual = 0.200673, Final residual = 0.0127446, No Iterations 5
ExecutionTime = 0.11 s  ClockTime = 0 s

scalarTransport execute: age
smoothSolver:  Solving for age, Initial residual = 0.160713, Final residual = 0.0148481, No Iterations 8

Time = 6

smoothSolver:  Solving for Ux, Initial residual = 0.114238, Final residual = 0.0101271, No Iterations 4
smoothSolver:  Solving for Uy, Initial residual = 0.0695292, Final residual = 0.00453929, No Iterations 5
GAMG:  Solving for p, Initial residual = 0.0566372, Final residual = 0.00258058, No Iterations 3
time step continuity errors : sum local = 0.0122664, global = 0.000125567, cumulative = 0.0124659
smoothSolver:  Solving for omega, Initial residual = 0.0101052, Final residual = 0.000662485, No Iterations 4
smoothSolver:  Solving for k, Initial residual = 0.157832, Final residual = 0.0104352, No Iterations 5
ExecutionTime = 0.12 s  ClockTime = 0 s

scalarTransport execute: age
smoothSolver:  Solving for age, Initial residual = 0.124731, Final residual = 0.0109353, No Iterations 9

Time = 7

smoothSolver:  Solving for Ux, Initial residual = 0.104785, Final residual = 0.00960282, No Iterations 4
smoothSolver:  Solving for Uy, Initial residual = 0.0671563, Final residual = 0.0045847, No Iterations 5
GAMG:  Solving for p, Initial residual = 0.0515305, Final residual = 0.0025156, No Iterations 3
time step continuity errors : sum local = 0.0125614, global = -0.000529816, cumulative = 0.0119361
smoothSolver:  Solving for omega, Initial residual = 0.00846738, Final residual = 0.000496574, No Iterations 4
smoothSolver:  Solving for k, Initial residual = 0.128535, Final residual = 0.00856593, No Iterations 5
ExecutionTime = 0.13 s  ClockTime = 0 s

scalarTransport execute: age
smoothSolver:  Solving for age, Initial residual = 0.108877, Final residual = 0.00994497, No Iterations 9

Time = 8

smoothSolver:  Solving for Ux, Initial residual = 0.0970756, Final residual = 0.00899894, No Iterations 4
smoothSolver:  Solving for Uy, Initial residual = 0.0661085, Final residual = 0.00457104, No Iterations 5
GAMG:  Solving for p, Initial residual = 0.0528812, Final residual = 0.00213726, No Iterations 3
time step continuity errors : sum local = 0.0114897, global = -0.000600874, cumulative = 0.0113352
smoothSolver:  Solving for omega, Initial residual = 0.00728094, Final residual = 0.0007171, No Iterations 3
smoothSolver:  Solving for k, Initial residual = 0.108505, Final residual = 0.00708055, No Iterations 5
ExecutionTime = 0.15 s  ClockTime = 0 s

scalarTransport execute: age
smoothSolver:  Solving for age, Initial residual = 0.100163, Final residual = 0.00934211, No Iterations 9

Time = 9

smoothSolver:  Solving for Ux, Initial residual = 0.0909426, Final residual = 0.00834511, No Iterations 4
smoothSolver:  Solving for Uy, Initial residual = 0.0662002, Final residual = 0.00454205, No Iterations 5
GAMG:  Solving for p, Initial residual = 0.0546273, Final residual = 0.00227924, No Iterations 3
time step continuity errors : sum local = 0.0128826, global = -0.000583924, cumulative = 0.0107513
smoothSolver:  Solving for omega, Initial residual = 0.00694875, Final residual = 0.000623192, No Iterations 3
smoothSolver:  Solving for k, Initial residual = 0.0942762, Final residual = 0.00583494, No Iterations 5
ExecutionTime = 0.16 s  ClockTime = 0 s

scalarTransport execute: age
smoothSolver:  Solving for age, Initial residual = 0.0965464, Final residual = 0.00886323, No Iterations 9

Time = 10

smoothSolver:  Solving for Ux, Initial residual = 0.0871061, Final residual = 0.0078858, No Iterations 4
smoothSolver:  Solving for Uy, Initial residual = 0.0657152, Final residual = 0.00443038, No Iterations 5
GAMG:  Solving for p, Initial residual = 0.0572913, Final residual = 0.00275029, No Iterations 3
time step continuity errors : sum local = 0.0158003, global = -0.000387293, cumulative = 0.010364
smoothSolver:  Solving for omega, Initial residual = 0.00663014, Final residual = 0.000564139, No Iterations 3
smoothSolver:  Solving for k, Initial residual = 0.0837167, Final residual = 0.00802705, No Iterations 4
ExecutionTime = 0.17 s  ClockTime = 0 s

scalarTransport execute: age
smoothSolver:  Solving for age, Initial residual = 0.0969165, Final residual = 0.00856192, No Iterations 9

Time = 11

smoothSolver:  Solving for Ux, Initial residual = 0.08381, Final residual = 0.00743454, No Iterations 4
smoothSolver:  Solving for Uy, Initial residual = 0.0654463, Final residual = 0.00433399, No Iterations 5
GAMG:  Solving for p, Initial residual = 0.0565152, Final residual = 0.00305111, No Iterations 3
time step continuity errors : sum local = 0.0175019, global = 3.16942e-05, cumulative = 0.0103957
smoothSolver:  Solving for omega, Initial residual = 0.0069753, Final residual = 0.000528855, No Iterations 3
smoothSolver:  Solving for k, Initial residual = 0.0768425, Final residual = 0.00672173, No Iterations 4
ExecutionTime = 0.18 s  ClockTime = 0 s

scalarTransport execute: age
smoothSolver:  Solving for age, Initial residual = 0.0977418, Final residual = 0.00868951, No Iterations 9

Time = 12

smoothSolver:  Solving for Ux, Initial residual = 0.0808701, Final residual = 0.00701839, No Iterations 4
smoothSolver:  Solving for Uy, Initial residual = 0.0647808, Final residual = 0.0041631, No Iterations 5
GAMG:  Solving for p, Initial residual = 0.0584419, Final residual = 0.00302445, No Iterations 3
time step continuity errors : sum local = 0.0175417, global = 0.000595939, cumulative = 0.0109917
smoothSolver:  Solving for omega, Initial residual = 0.00702558, Final residual = 0.000495965, No Iterations 3
smoothSolver:  Solving for k, Initial residual = 0.0721624, Final residual = 0.00569585, No Iterations 4
ExecutionTime = 0.19 s  ClockTime = 0 s

scalarTransport execute: age
smoothSolver:  Solving for age, Initial residual = 0.0981429, Final residual = 0.00899657, No Iterations 9

Time = 13

smoothSolver:  Solving for Ux, Initial residual = 0.0773304, Final residual = 0.00659599, No Iterations 4
smoothSolver:  Solving for Uy, Initial residual = 0.0639653, Final residual = 0.0039498, No Iterations 5
GAMG:  Solving for p, Initial residual = 0.0590422, Final residual = 0.00271421, No Iterations 3
time step continuity errors : sum local = 0.0160039, global = 0.00114859, cumulative = 0.0121402
smoothSolver:  Solving for omega, Initial residual = 0.00675464, Final residual = 0.000467455, No Iterations 3
smoothSolver:  Solving for k, Initial residual = 0.0698152, Final residual = 0.00491703, No Iterations 4
ExecutionTime = 0.2 s  ClockTime = 0 s

scalarTransport execute: age
smoothSolver:  Solving for age, Initial residual = 0.0987244, Final residual = 0.0093587, No Iterations 9

Time = 14

smoothSolver:  Solving for Ux, Initial residual = 0.0734765, Final residual = 0.00612458, No Iterations 4
smoothSolver:  Solving for Uy, Initial residual = 0.0632361, Final residual = 0.00610626, No Iterations 4
GAMG:  Solving for p, Initial residual = 0.0599462, Final residual = 0.00222932, No Iterations 3
time step continuity errors : sum local = 0.0134205, global = 0.00147672, cumulative = 0.013617
smoothSolver:  Solving for omega, Initial residual = 0.00681758, Final residual = 0.000444984, No Iterations 3
smoothSolver:  Solving for k, Initial residual = 0.0687573, Final residual = 0.00430355, No Iterations 4
ExecutionTime = 0.21 s  ClockTime = 0 s

scalarTransport execute: age
smoothSolver:  Solving for age, Initial residual = 0.101147, Final residual = 0.00976471, No Iterations 9

Time = 15

smoothSolver:  Solving for Ux, Initial residual = 0.0698767, Final residual = 0.00564815, No Iterations 4
smoothSolver:  Solving for Uy, Initial residual = 0.0625977, Final residual = 0.00588728, No Iterations 4
GAMG:  Solving for p, Initial residual = 0.0616733, Final residual = 0.0019293, No Iterations 3
time step continuity errors : sum local = 0.0117429, global = 0.00136424, cumulative = 0.0149812
smoothSolver:  Solving for omega, Initial residual = 0.00674163, Final residual = 0.000421471, No Iterations 3
smoothSolver:  Solving for k, Initial residual = 0.068026, Final residual = 0.0038001, No Iterations 4
ExecutionTime = 0.23 s  ClockTime = 0 s

scalarTransport execute: age
smoothSolver:  Solving for age, Initial residual = 0.10368, Final residual = 0.0101606, No Iterations 9

Time = 16

smoothSolver:  Solving for Ux, Initial residual = 0.0680374, Final residual = 0.00524201, No Iterations 4
smoothSolver:  Solving for Uy, Initial residual = 0.0614581, Final residual = 0.00560031, No Iterations 4
GAMG:  Solving for p, Initial residual = 0.0650293, Final residual = 0.00634981, No Iterations 2
time step continuity errors : sum local = 0.0386241, global = 0.00219122, cumulative = 0.0171724
smoothSolver:  Solving for omega, Initial residual = 0.00661148, Final residual = 0.000389424, No Iterations 3
smoothSolver:  Solving for k, Initial residual = 0.0663491, Final residual = 0.00623661, No Iterations 3
ExecutionTime = 0.24 s  ClockTime = 0 s

scalarTransport execute: age
smoothSolver:  Solving for age, Initial residual = 0.105458, Final residual = 0.0105243, No Iterations 9

Time = 17

smoothSolver:  Solving for Ux, Initial residual = 0.067253, Final residual = 0.00496392, No Iterations 4
smoothSolver:  Solving for Uy, Initial residual = 0.0596276, Final residual = 0.00526021, No Iterations 4
GAMG:  Solving for p, Initial residual = 0.0680348, Final residual = 0.00253505, No Iterations 3
time step continuity errors : sum local = 0.0156439, global = 0.00130523, cumulative = 0.0184777
smoothSolver:  Solving for omega, Initial residual = 0.00681162, Final residual = 0.00036567, No Iterations 3
smoothSolver:  Solving for k, Initial residual = 0.066866, Final residual = 0.00577084, No Iterations 3
ExecutionTime = 0.25 s  ClockTime = 0 s

scalarTransport execute: age
smoothSolver:  Solving for age, Initial residual = 0.107383, Final residual = 0.00953783, No Iterations 10

Time = 18

smoothSolver:  Solving for Ux, Initial residual = 0.0658819, Final residual = 0.00451729, No Iterations 4
smoothSolver:  Solving for Uy, Initial residual = 0.0578911, Final residual = 0.00471713, No Iterations 4
GAMG:  Solving for p, Initial residual = 0.0690899, Final residual = 0.00194997, No Iterations 3
time step continuity errors : sum local = 0.0116846, global = 0.00162158, cumulative = 0.0200992
smoothSolver:  Solving for omega, Initial residual = 0.00657843, Final residual = 0.000332479, No Iterations 3
smoothSolver:  Solving for k, Initial residual = 0.0654276, Final residual = 0.00521182, No Iterations 3
ExecutionTime = 0.26 s  ClockTime = 0 s

scalarTransport execute: age
smoothSolver:  Solving for age, Initial residual = 0.106391, Final residual = 0.00958992, No Iterations 10

Time = 19

smoothSolver:  Solving for Ux, Initial residual = 0.0642107, Final residual = 0.00424292, No Iterations 4
smoothSolver:  Solving for Uy, Initial residual = 0.0560933, Final residual = 0.00439067, No Iterations 4
GAMG:  Solving for p, Initial residual = 0.0714104, Final residual = 0.00673017, No Iterations 2
time step continuity errors : sum local = 0.0400171, global = 0.00243176, cumulative = 0.022531
smoothSolver:  Solving for omega, Initial residual = 0.00620516, Final residual = 0.000301058, No Iterations 3
smoothSolver:  Solving for k, Initial residual = 0.0634223, Final residual = 0.00470666, No Iterations 3
ExecutionTime = 0.27 s  ClockTime = 0 s

scalarTransport execute: age
smoothSolver:  Solving for age, Initial residual = 0.105054, Final residual = 0.00967074, No Iterations 10

Time = 20

smoothSolver:  Solving for Ux, Initial residual = 0.0620001, Final residual = 0.00398361, No Iterations 4
smoothSolver:  Solving for Uy, Initial residual = 0.053176, Final residual = 0.00398627, No Iterations 4
GAMG:  Solving for p, Initial residual = 0.0754185, Final residual = 0.006767, No Iterations 2
time step continuity errors : sum local = 0.0400335, global = 0.00400492, cumulative = 0.0265359
smoothSolver:  Solving for omega, Initial residual = 0.00586056, Final residual = 0.000273673, No Iterations 3
smoothSolver:  Solving for k, Initial residual = 0.0604217, Final residual = 0.00431358, No Iterations 3
ExecutionTime = 0.28 s  ClockTime = 0 s

scalarTransport execute: age
smoothSolver:  Solving for age, Initial residual = 0.102238, Final residual = 0.00951153, No Iterations 10

Time = 21

smoothSolver:  Solving for Ux, Initial residual = 0.0596099, Final residual = 0.00370675, No Iterations 4
smoothSolver:  Solving for Uy, Initial residual = 0.0499964, Final residual = 0.00347329, No Iterations 4
GAMG:  Solving for p, Initial residual = 0.0749386, Final residual = 0.00597118, No Iterations 2
time step continuity errors : sum local = 0.0346, global = 0.00427333, cumulative = 0.0308093
smoothSolver:  Solving for omega, Initial residual = 0.00548033, Final residual = 0.000250606, No Iterations 3
smoothSolver:  Solving for k, Initial residual = 0.0560072, Final residual = 0.00399933, No Iterations 3
ExecutionTime = 0.29 s  ClockTime = 0 s

scalarTransport execute: age
smoothSolver:  Solving for age, Initial residual = 0.0994388, Final residual = 0.00942502, No Iterations 10

Time = 22

smoothSolver:  Solving for Ux, Initial residual = 0.0571238, Final residual = 0.00341236, No Iterations 4
smoothSolver:  Solving for Uy, Initial residual = 0.0467639, Final residual = 0.00306501, No Iterations 4
GAMG:  Solving for p, Initial residual = 0.0753489, Final residual = 0.00555875, No Iterations 2
time step continuity errors : sum local = 0.0307418, global = 0.00366659, cumulative = 0.0344758
smoothSolver:  Solving for omega, Initial residual = 0.00501783, Final residual = 0.000226274, No Iterations 3
smoothSolver:  Solving for k, Initial residual = 0.0516981, Final residual = 0.00378105, No Iterations 3
ExecutionTime = 0.3 s  ClockTime = 0 s

scalarTransport execute: age
smoothSolver:  Solving for age, Initial residual = 0.094469, Final residual = 0.00880519, No Iterations 10

Time = 23

smoothSolver:  Solving for Ux, Initial residual = 0.0534995, Final residual = 0.00310276, No Iterations 4
smoothSolver:  Solving for Uy, Initial residual = 0.0432078, Final residual = 0.00280014, No Iterations 4
GAMG:  Solving for p, Initial residual = 0.0754015, Final residual = 0.00547231, No Iterations 2
time step continuity errors : sum local = 0.0288041, global = 0.00331933, cumulative = 0.0377952
smoothSolver:  Solving for omega, Initial residual = 0.00462939, Final residual = 0.000206993, No Iterations 3
smoothSolver:  Solving for k, Initial residual = 0.0482498, Final residual = 0.00364317, No Iterations 3
ExecutionTime = 0.32 s  ClockTime = 0 s

scalarTransport execute: age
smoothSolver:  Solving for age, Initial residual = 0.0907459, Final residual = 0.00829339, No Iterations 10

Time = 24

smoothSolver:  Solving for Ux, Initial residual = 0.0495188, Final residual = 0.00284442, No Iterations 4
smoothSolver:  Solving for Uy, Initial residual = 0.0396674, Final residual = 0.00259981, No Iterations 4
GAMG:  Solving for p, Initial residual = 0.0743614, Final residual = 0.005265, No Iterations 2
time step continuity errors : sum local = 0.0265901, global = 0.00289306, cumulative = 0.0406882
smoothSolver:  Solving for omega, Initial residual = 0.00436915, Final residual = 0.000434288, No Iterations 2
smoothSolver:  Solving for k, Initial residual = 0.0458047, Final residual = 0.00352663, No Iterations 3
ExecutionTime = 0.33 s  ClockTime = 0 s

scalarTransport execute: age
smoothSolver:  Solving for age, Initial residual = 0.0874292, Final residual = 0.00797642, No Iterations 10

Time = 25

smoothSolver:  Solving for Ux, Initial residual = 0.0454327, Final residual = 0.00263549, No Iterations 4
smoothSolver:  Solving for Uy, Initial residual = 0.0369731, Final residual = 0.00246281, No Iterations 4
GAMG:  Solving for p, Initial residual = 0.0723084, Final residual = 0.00520299, No Iterations 2
time step continuity errors : sum local = 0.0248934, global = 0.00219197, cumulative = 0.0428802
smoothSolver:  Solving for omega, Initial residual = 0.00397285, Final residual = 0.000197931, No Iterations 3
smoothSolver:  Solving for k, Initial residual = 0.0442483, Final residual = 0.0034297, No Iterations 3
ExecutionTime = 0.34 s  ClockTime = 0 s

scalarTransport execute: age
smoothSolver:  Solving for age, Initial residual = 0.0843161, Final residual = 0.00780554, No Iterations 10

Time = 26

smoothSolver:  Solving for Ux, Initial residual = 0.0416362, Final residual = 0.00249589, No Iterations 4
smoothSolver:  Solving for Uy, Initial residual = 0.0352268, Final residual = 0.00240044, No Iterations 4
GAMG:  Solving for p, Initial residual = 0.069573, Final residual = 0.00509143, No Iterations 2
time step continuity errors : sum local = 0.0234871, global = 0.00134106, cumulative = 0.0442213
smoothSolver:  Solving for omega, Initial residual = 0.00361888, Final residual = 0.00018918, No Iterations 3
smoothSolver:  Solving for k, Initial residual = 0.0429618, Final residual = 0.00335695, No Iterations 3
ExecutionTime = 0.35 s  ClockTime = 0 s

scalarTransport execute: age
smoothSolver:  Solving for age, Initial residual = 0.0814431, Final residual = 0.00760775, No Iterations 10

Time = 27

smoothSolver:  Solving for Ux, Initial residual = 0.037843, Final residual = 0.00239468, No Iterations 4
smoothSolver:  Solving for Uy, Initial residual = 0.0341525, Final residual = 0.00241503, No Iterations 4
GAMG:  Solving for p, Initial residual = 0.0657974, Final residual = 0.00506523, No Iterations 2
time step continuity errors : sum local = 0.022982, global = 0.000505487, cumulative = 0.0447267
smoothSolver:  Solving for omega, Initial residual = 0.00341836, Final residual = 0.000183631, No Iterations 3
smoothSolver:  Solving for k, Initial residual = 0.0416905, Final residual = 0.00330911, No Iterations 3
ExecutionTime = 0.36 s  ClockTime = 0 s

scalarTransport execute: age
smoothSolver:  Solving for age, Initial residual = 0.0790115, Final residual = 0.00733006, No Iterations 10

Time = 28

smoothSolver:  Solving for Ux, Initial residual = 0.0345961, Final residual = 0.00228091, No Iterations 4
smoothSolver:  Solving for Uy, Initial residual = 0.0333903, Final residual = 0.00244866, No Iterations 4
GAMG:  Solving for p, Initial residual = 0.0614073, Final residual = 0.0049059, No Iterations 2
time step continuity errors : sum local = 0.0222433, global = -0.000357067, cumulative = 0.0443697
smoothSolver:  Solving for omega, Initial residual = 0.00324196, Final residual = 0.000179672, No Iterations 3
smoothSolver:  Solving for k, Initial residual = 0.040577, Final residual = 0.00332603, No Iterations 3
ExecutionTime = 0.37 s  ClockTime = 0 s

scalarTransport execute: age
smoothSolver:  Solving for age, Initial residual = 0.0760281, Final residual = 0.00700777, No Iterations 10

Time = 29

smoothSolver:  Solving for Ux, Initial residual = 0.0316294, Final residual = 0.00210989, No Iterations 4
smoothSolver:  Solving for Uy, Initial residual = 0.0328625, Final residual = 0.00250196, No Iterations 4
GAMG:  Solving for p, Initial residual = 0.0581186, Final residual = 0.00462492, No Iterations 2
time step continuity errors : sum local = 0.0211582, global = -0.00117244, cumulative = 0.0431972
smoothSolver:  Solving for omega, Initial residual = 0.00313608, Final residual = 0.000178742, No Iterations 3
smoothSolver:  Solving for k, Initial residual = 0.0405529, Final residual = 0.0033544, No Iterations 3
ExecutionTime = 0.38 s  ClockTime = 0 s

scalarTransport execute: age
smoothSolver:  Solving for age, Initial residual = 0.0735717, Final residual = 0.00672569, No Iterations 10

Time = 30

smoothSolver:  Solving for Ux, Initial residual = 0.0287867, Final residual = 0.00191208, No Iterations 4
smoothSolver:  Solving for Uy, Initial residual = 0.0326636, Final residual = 0.0025957, No Iterations 4
GAMG:  Solving for p, Initial residual = 0.056149, Final residual = 0.00436932, No Iterations 2
time step continuity errors : sum local = 0.0202103, global = -0.00170649, cumulative = 0.0414907
smoothSolver:  Solving for omega, Initial residual = 0.00301041, Final residual = 0.000177675, No Iterations 3
smoothSolver:  Solving for k, Initial residual = 0.0405133, Final residual = 0.0033317, No Iterations 3
ExecutionTime = 0.39 s  ClockTime = 0 s

scalarTransport execute: age
smoothSolver:  Solving for age, Initial residual = 0.0719577, Final residual = 0.00647923, No Iterations 10

Time = 31

smoothSolver:  Solving for Ux, Initial residual = 0.0262518, Final residual = 0.00171901, No Iterations 4
smoothSolver:  Solving for Uy, Initial residual = 0.032104, Final residual = 0.00267677, No Iterations 4
GAMG:  Solving for p, Initial residual = 0.05462, Final residual = 0.00422349, No Iterations 2
time step continuity errors : sum local = 0.0198216, global = -0.00180243, cumulative = 0.0396883
smoothSolver:  Solving for omega, Initial residual = 0.00299932, Final residual = 0.000174863, No Iterations 3
smoothSolver:  Solving for k, Initial residual = 0.0398277, Final residual = 0.00322004, No Iterations 3
ExecutionTime = 0.4 s  ClockTime = 0 s

scalarTransport execute: age
smoothSolver:  Solving for age, Initial residual = 0.0701435, Final residual = 0.00623856, No Iterations 10

Time = 32

smoothSolver:  Solving for Ux, Initial residual = 0.02404, Final residual = 0.00154383, No Iterations 4
smoothSolver:  Solving for Uy, Initial residual = 0.0310643, Final residual = 0.00268287, No Iterations 4
GAMG:  Solving for p, Initial residual = 0.0526745, Final residual = 0.00424284, No Iterations 2
time step continuity errors : sum local = 0.0202443, global = -0.0014423, cumulative = 0.038246
smoothSolver:  Solving for omega, Initial residual = 0.00295908, Final residual = 0.000168787, No Iterations 3
smoothSolver:  Solving for k, Initial residual = 0.0385248, Final residual = 0.00304309, No Iterations 3
ExecutionTime = 0.42 s  ClockTime = 0 s

scalarTransport execute: age
smoothSolver:  Solving for age, Initial residual = 0.0671994, Final residual = 0.00593707, No Iterations 10

Time = 33

smoothSolver:  Solving for Ux, Initial residual = 0.0223209, Final residual = 0.00139808, No Iterations 4
smoothSolver:  Solving for Uy, Initial residual = 0.0298349, Final residual = 0.00260445, No Iterations 4
GAMG:  Solving for p, Initial residual = 0.0507027, Final residual = 0.00433621, No Iterations 2
time step continuity errors : sum local = 0.0210189, global = -0.000668732, cumulative = 0.0375773
smoothSolver:  Solving for omega, Initial residual = 0.00293189, Final residual = 0.000159683, No Iterations 3
smoothSolver:  Solving for k, Initial residual = 0.0371013, Final residual = 0.00285948, No Iterations 3
ExecutionTime = 0.43 s  ClockTime = 0 s

scalarTransport execute: age
smoothSolver:  Solving for age, Initial residual = 0.0638058, Final residual = 0.00572843, No Iterations 10

Time = 34

smoothSolver:  Solving for Ux, Initial residual = 0.0211803, Final residual = 0.00129236, No Iterations 4
smoothSolver:  Solving for Uy, Initial residual = 0.0286226, Final residual = 0.0024503, No Iterations 4
GAMG:  Solving for p, Initial residual = 0.0490031, Final residual = 0.00426326, No Iterations 2
time step continuity errors : sum local = 0.0209007, global = 0.00043525, cumulative = 0.0380125
smoothSolver:  Solving for omega, Initial residual = 0.00285158, Final residual = 0.000148254, No Iterations 3
smoothSolver:  Solving for k, Initial residual = 0.03559, Final residual = 0.00269387, No Iterations 3
ExecutionTime = 0.44 s  ClockTime = 0 s

scalarTransport execute: age
smoothSolver:  Solving for age, Initial residual = 0.0597072, Final residual = 0.00552843, No Iterations 10

Time = 35

smoothSolver:  Solving for Ux, Initial residual = 0.0205597, Final residual = 0.0012239, No Iterations 4
smoothSolver:  Solving for Uy, Initial residual = 0.0268025, Final residual = 0.00224031, No Iterations 4
GAMG:  Solving for p, Initial residual = 0.0473973, Final residual = 0.00332784, No Iterations 2
time step continuity errors : sum local = 0.0164279, global = 0.00148048, cumulative = 0.039493
smoothSolver:  Solving for omega, Initial residual = 0.00268157, Final residual = 0.000136732, No Iterations 3
smoothSolver:  Solving for k, Initial residual = 0.0336379, Final residual = 0.0025492, No Iterations 3
ExecutionTime = 0.45 s  ClockTime = 0 s

scalarTransport execute: age
smoothSolver:  Solving for age, Initial residual = 0.055868, Final residual = 0.00531991, No Iterations 10

Time = 36

smoothSolver:  Solving for Ux, Initial residual = 0.0203901, Final residual = 0.00119235, No Iterations 4
smoothSolver:  Solving for Uy, Initial residual = 0.0245931, Final residual = 0.00199311, No Iterations 4
GAMG:  Solving for p, Initial residual = 0.0457195, Final residual = 0.00261426, No Iterations 2
time step continuity errors : sum local = 0.0128355, global = 0.00144361, cumulative = 0.0409366
smoothSolver:  Solving for omega, Initial residual = 0.00253347, Final residual = 0.000126173, No Iterations 3
smoothSolver:  Solving for k, Initial residual = 0.0315802, Final residual = 0.00244442, No Iterations 3
ExecutionTime = 0.46 s  ClockTime = 0 s

scalarTransport execute: age
smoothSolver:  Solving for age, Initial residual = 0.051628, Final residual = 0.00505828, No Iterations 10

Time = 37

smoothSolver:  Solving for Ux, Initial residual = 0.0205845, Final residual = 0.00121703, No Iterations 4
smoothSolver:  Solving for Uy, Initial residual = 0.0226303, Final residual = 0.00174689, No Iterations 4
GAMG:  Solving for p, Initial residual = 0.0450362, Final residual = 0.00228619, No Iterations 2
time step continuity errors : sum local = 0.0108302, global = 0.00141894, cumulative = 0.0423556
smoothSolver:  Solving for omega, Initial residual = 0.00237835, Final residual = 0.000118976, No Iterations 3
smoothSolver:  Solving for k, Initial residual = 0.0301075, Final residual = 0.00236739, No Iterations 3
ExecutionTime = 0.47 s  ClockTime = 0 s

scalarTransport execute: age
smoothSolver:  Solving for age, Initial residual = 0.0479169, Final residual = 0.00416771, No Iterations 11

Time = 38

smoothSolver:  Solving for Ux, Initial residual = 0.0201225, Final residual = 0.00121018, No Iterations 4
smoothSolver:  Solving for Uy, Initial residual = 0.0213698, Final residual = 0.00158861, No Iterations 4
GAMG:  Solving for p, Initial residual = 0.0448553, Final residual = 0.0022356, No Iterations 2
time step continuity errors : sum local = 0.0103596, global = 0.00127143, cumulative = 0.043627
smoothSolver:  Solving for omega, Initial residual = 0.00238282, Final residual = 0.000114015, No Iterations 3
smoothSolver:  Solving for k, Initial residual = 0.0292124, Final residual = 0.00229402, No Iterations 3
ExecutionTime = 0.48 s  ClockTime = 0 s

scalarTransport execute: age
smoothSolver:  Solving for age, Initial residual = 0.0447352, Final residual = 0.00392174, No Iterations 11

Time = 39

smoothSolver:  Solving for Ux, Initial residual = 0.0195474, Final residual = 0.00119703, No Iterations 4
smoothSolver:  Solving for Uy, Initial residual = 0.0193487, Final residual = 0.00137588, No Iterations 4
GAMG:  Solving for p, Initial residual = 0.0438741, Final residual = 0.00230069, No Iterations 2
time step continuity errors : sum local = 0.0105609, global = 0.00118894, cumulative = 0.0448159
smoothSolver:  Solving for omega, Initial residual = 0.00220869, Final residual = 0.000108097, No Iterations 3
smoothSolver:  Solving for k, Initial residual = 0.0286951, Final residual = 0.00223652, No Iterations 3
ExecutionTime = 0.5 s  ClockTime = 0 s

scalarTransport execute: age
smoothSolver:  Solving for age, Initial residual = 0.0416269, Final residual = 0.00369411, No Iterations 11

Time = 40

smoothSolver:  Solving for Ux, Initial residual = 0.0188851, Final residual = 0.00118015, No Iterations 4
smoothSolver:  Solving for Uy, Initial residual = 0.0175855, Final residual = 0.00117771, No Iterations 4
GAMG:  Solving for p, Initial residual = 0.0422255, Final residual = 0.00232951, No Iterations 2
time step continuity errors : sum local = 0.0106427, global = 0.00109159, cumulative = 0.0459075
smoothSolver:  Solving for omega, Initial residual = 0.0020173, Final residual = 0.000100491, No Iterations 3
smoothSolver:  Solving for k, Initial residual = 0.0280556, Final residual = 0.00220237, No Iterations 3
ExecutionTime = 0.51 s  ClockTime = 0 s

scalarTransport execute: age
smoothSolver:  Solving for age, Initial residual = 0.0395909, Final residual = 0.00353485, No Iterations 11

Time = 41

smoothSolver:  Solving for Ux, Initial residual = 0.0181658, Final residual = 0.00115795, No Iterations 4
smoothSolver:  Solving for Uy, Initial residual = 0.0164633, Final residual = 0.0010767, No Iterations 4
GAMG:  Solving for p, Initial residual = 0.0405594, Final residual = 0.00243856, No Iterations 2
time step continuity errors : sum local = 0.0111109, global = 0.00099263, cumulative = 0.0469002
smoothSolver:  Solving for omega, Initial residual = 0.00182863, Final residual = 9.3777e-05, No Iterations 3
smoothSolver:  Solving for k, Initial residual = 0.0273471, Final residual = 0.00219716, No Iterations 3
ExecutionTime = 0.52 s  ClockTime = 0 s

scalarTransport execute: age
smoothSolver:  Solving for age, Initial residual = 0.0381194, Final residual = 0.00339994, No Iterations 11

Time = 42

smoothSolver:  Solving for Ux, Initial residual = 0.0175938, Final residual = 0.00113008, No Iterations 4
smoothSolver:  Solving for Uy, Initial residual = 0.0160797, Final residual = 0.00107119, No Iterations 4
GAMG:  Solving for p, Initial residual = 0.0399309, Final residual = 0.00266469, No Iterations 2
time step continuity errors : sum local = 0.0121217, global = 0.000911009, cumulative = 0.0478112
smoothSolver:  Solving for omega, Initial residual = 0.00167767, Final residual = 8.76584e-05, No Iterations 3
smoothSolver:  Solving for k, Initial residual = 0.0266773, Final residual = 0.00219367, No Iterations 3
ExecutionTime = 0.53 s  ClockTime = 0 s

scalarTransport execute: age
smoothSolver:  Solving for age, Initial residual = 0.0371435, Final residual = 0.00328116, No Iterations 11

Time = 43

smoothSolver:  Solving for Ux, Initial residual = 0.0172432, Final residual = 0.00109469, No Iterations 4
smoothSolver:  Solving for Uy, Initial residual = 0.0161064, Final residual = 0.00110114, No Iterations 4
GAMG:  Solving for p, Initial residual = 0.0397821, Final residual = 0.00292718, No Iterations 2
time step continuity errors : sum local = 0.0133172, global = 0.000850213, cumulative = 0.0486614
smoothSolver:  Solving for omega, Initial residual = 0.00158439, Final residual = 8.31004e-05, No Iterations 3
smoothSolver:  Solving for k, Initial residual = 0.0259885, Final residual = 0.00218823, No Iterations 3
ExecutionTime = 0.54 s  ClockTime = 0 s

scalarTransport execute: age
smoothSolver:  Solving for age, Initial residual = 0.0368212, Final residual = 0.00316711, No Iterations 11

Time = 44

smoothSolver:  Solving for Ux, Initial residual = 0.0169471, Final residual = 0.00105051, No Iterations 4
smoothSolver:  Solving for Uy, Initial residual = 0.0161735, Final residual = 0.00114096, No Iterations 4
GAMG:  Solving for p, Initial residual = 0.03973, Final residual = 0.0031533, No Iterations 2
time step continuity errors : sum local = 0.0143568, global = 0.000793173, cumulative = 0.0494546
smoothSolver:  Solving for omega, Initial residual = 0.00156675, Final residual = 8.00383e-05, No Iterations 3
smoothSolver:  Solving for k, Initial residual = 0.0253752, Final residual = 0.00215865, No Iterations 3
ExecutionTime = 0.55 s  ClockTime = 0 s

scalarTransport execute: age
smoothSolver:  Solving for age, Initial residual = 0.03637, Final residual = 0.00355684, No Iterations 10

Time = 45

smoothSolver:  Solving for Ux, Initial residual = 0.0164993, Final residual = 0.000996572, No Iterations 4
smoothSolver:  Solving for Uy, Initial residual = 0.0162535, Final residual = 0.00117103, No Iterations 4
GAMG:  Solving for p, Initial residual = 0.03967, Final residual = 0.00328952, No Iterations 2
time step continuity errors : sum local = 0.014983, global = 0.000736015, cumulative = 0.0501906
smoothSolver:  Solving for omega, Initial residual = 0.00158027, Final residual = 7.82378e-05, No Iterations 3
smoothSolver:  Solving for k, Initial residual = 0.0245232, Final residual = 0.00208943, No Iterations 3
ExecutionTime = 0.56 s  ClockTime = 0 s

scalarTransport execute: age
smoothSolver:  Solving for age, Initial residual = 0.0361237, Final residual = 0.00344054, No Iterations 10

Time = 46

smoothSolver:  Solving for Ux, Initial residual = 0.0158618, Final residual = 0.000932691, No Iterations 4
smoothSolver:  Solving for Uy, Initial residual = 0.0162656, Final residual = 0.00118882, No Iterations 4
GAMG:  Solving for p, Initial residual = 0.0393291, Final residual = 0.00328975, No Iterations 2
time step continuity errors : sum local = 0.0149779, global = 0.000665964, cumulative = 0.0508565
smoothSolver:  Solving for omega, Initial residual = 0.00158757, Final residual = 7.76534e-05, No Iterations 3
smoothSolver:  Solving for k, Initial residual = 0.0235778, Final residual = 0.00198783, No Iterations 3
ExecutionTime = 0.58 s  ClockTime = 0 s

scalarTransport execute: age
smoothSolver:  Solving for age, Initial residual = 0.0356268, Final residual = 0.00332138, No Iterations 10

Time = 47

smoothSolver:  Solving for Ux, Initial residual = 0.0151639, Final residual = 0.000867741, No Iterations 4
smoothSolver:  Solving for Uy, Initial residual = 0.0159848, Final residual = 0.00118465, No Iterations 4
GAMG:  Solving for p, Initial residual = 0.0386855, Final residual = 0.00317062, No Iterations 2
time step continuity errors : sum local = 0.014414, global = 0.000571399, cumulative = 0.0514279
smoothSolver:  Solving for omega, Initial residual = 0.00158237, Final residual = 7.69147e-05, No Iterations 3
smoothSolver:  Solving for k, Initial residual = 0.0226284, Final residual = 0.00186911, No Iterations 3
ExecutionTime = 0.59 s  ClockTime = 0 s

scalarTransport execute: age
smoothSolver:  Solving for age, Initial residual = 0.0350354, Final residual = 0.00322291, No Iterations 10

Time = 48

smoothSolver:  Solving for Ux, Initial residual = 0.0144113, Final residual = 0.000816265, No Iterations 4
smoothSolver:  Solving for Uy, Initial residual = 0.0155348, Final residual = 0.00115757, No Iterations 4
GAMG:  Solving for p, Initial residual = 0.0377203, Final residual = 0.0029552, No Iterations 2
time step continuity errors : sum local = 0.013384, global = 0.000456659, cumulative = 0.0518846
smoothSolver:  Solving for omega, Initial residual = 0.00154711, Final residual = 7.52598e-05, No Iterations 3
smoothSolver:  Solving for k, Initial residual = 0.0218224, Final residual = 0.00175618, No Iterations 3
ExecutionTime = 0.6 s  ClockTime = 0 s

scalarTransport execute: age
smoothSolver:  Solving for age, Initial residual = 0.0338255, Final residual = 0.00311165, No Iterations 10

Time = 49

smoothSolver:  Solving for Ux, Initial residual = 0.0138129, Final residual = 0.000774467, No Iterations 4
smoothSolver:  Solving for Uy, Initial residual = 0.0149613, Final residual = 0.00111517, No Iterations 4
GAMG:  Solving for p, Initial residual = 0.0368885, Final residual = 0.00270645, No Iterations 2
time step continuity errors : sum local = 0.0121821, global = 0.000325132, cumulative = 0.0522097
smoothSolver:  Solving for omega, Initial residual = 0.00149467, Final residual = 7.29762e-05, No Iterations 3
smoothSolver:  Solving for k, Initial residual = 0.0212515, Final residual = 0.00166241, No Iterations 3
ExecutionTime = 0.61 s  ClockTime = 0 s

scalarTransport execute: age
smoothSolver:  Solving for age, Initial residual = 0.0322025, Final residual = 0.0030239, No Iterations 10

Time = 50

smoothSolver:  Solving for Ux, Initial residual = 0.0133224, Final residual = 0.000739811, No Iterations 4
smoothSolver:  Solving for Uy, Initial residual = 0.0144043, Final residual = 0.00105999, No Iterations 4
GAMG:  Solving for p, Initial residual = 0.0363198, Final residual = 0.00245479, No Iterations 2
time step continuity errors : sum local = 0.0109642, global = 0.000183786, cumulative = 0.0523935
smoothSolver:  Solving for omega, Initial residual = 0.00147635, Final residual = 7.1693e-05, No Iterations 3
smoothSolver:  Solving for k, Initial residual = 0.0206864, Final residual = 0.00157553, No Iterations 3
ExecutionTime = 0.62 s  ClockTime = 0 s

scalarTransport execute: age
smoothSolver:  Solving for age, Initial residual = 0.0306398, Final residual = 0.00293045, No Iterations 10

Time = 51

smoothSolver:  Solving for Ux, Initial residual = 0.0130074, Final residual = 0.000713889, No Iterations 4
smoothSolver:  Solving for Uy, Initial residual = 0.0140417, Final residual = 0.00101311, No Iterations 4
GAMG:  Solving for p, Initial residual = 0.036068, Final residual = 0.00229707, No Iterations 2
time step continuity errors : sum local = 0.0101682, global = 9.08654e-05, cumulative = 0.0524844
smoothSolver:  Solving for omega, Initial residual = 0.00145173, Final residual = 7.21322e-05, No Iterations 3
smoothSolver:  Solving for k, Initial residual = 0.0200438, Final residual = 0.00150623, No Iterations 3
ExecutionTime = 0.63 s  ClockTime = 0 s

scalarTransport execute: age
smoothSolver:  Solving for age, Initial residual = 0.0287177, Final residual = 0.00283615, No Iterations 10

Time = 52

smoothSolver:  Solving for Ux, Initial residual = 0.0126693, Final residual = 0.000687289, No Iterations 4
smoothSolver:  Solving for Uy, Initial residual = 0.013673, Final residual = 0.000975754, No Iterations 4
GAMG:  Solving for p, Initial residual = 0.0355484, Final residual = 0.00210727, No Iterations 2
time step continuity errors : sum local = 0.0092539, global = 6.42372e-06, cumulative = 0.0524908
smoothSolver:  Solving for omega, Initial residual = 0.00144712, Final residual = 7.2983e-05, No Iterations 3
smoothSolver:  Solving for k, Initial residual = 0.0194643, Final residual = 0.00145967, No Iterations 3
ExecutionTime = 0.64 s  ClockTime = 0 s

scalarTransport execute: age
smoothSolver:  Solving for age, Initial residual = 0.0269744, Final residual = 0.00237723, No Iterations 11

Time = 53

smoothSolver:  Solving for Ux, Initial residual = 0.0123879, Final residual = 0.00122296, No Iterations 3
smoothSolver:  Solving for Uy, Initial residual = 0.0132253, Final residual = 0.000939855, No Iterations 4
GAMG:  Solving for p, Initial residual = 0.0343758, Final residual = 0.00186818, No Iterations 2
time step continuity errors : sum local = 0.00813822, global = -6.51798e-05, cumulative = 0.0524256
smoothSolver:  Solving for omega, Initial residual = 0.00141775, Final residual = 7.29745e-05, No Iterations 3
smoothSolver:  Solving for k, Initial residual = 0.0187039, Final residual = 0.00141676, No Iterations 3
ExecutionTime = 0.65 s  ClockTime = 0 s

scalarTransport execute: age
smoothSolver:  Solving for age, Initial residual = 0.0253165, Final residual = 0.00226976, No Iterations 11

Time = 54

smoothSolver:  Solving for Ux, Initial residual = 0.012178, Final residual = 0.00119923, No Iterations 3
smoothSolver:  Solving for Uy, Initial residual = 0.0126825, Final residual = 0.000905202, No Iterations 4
GAMG:  Solving for p, Initial residual = 0.0331952, Final residual = 0.00178239, No Iterations 2
time step continuity errors : sum local = 0.00771325, global = -0.000157378, cumulative = 0.0522682
smoothSolver:  Solving for omega, Initial residual = 0.00138684, Final residual = 7.28726e-05, No Iterations 3
smoothSolver:  Solving for k, Initial residual = 0.0180628, Final residual = 0.00139238, No Iterations 3
ExecutionTime = 0.66 s  ClockTime = 0 s

scalarTransport execute: age
smoothSolver:  Solving for age, Initial residual = 0.0241305, Final residual = 0.00217633, No Iterations 11

Time = 55

smoothSolver:  Solving for Ux, Initial residual = 0.0119041, Final residual = 0.00116999, No Iterations 3
smoothSolver:  Solving for Uy, Initial residual = 0.0122423, Final residual = 0.000879628, No Iterations 4
GAMG:  Solving for p, Initial residual = 0.032036, Final residual = 0.00172745, No Iterations 2
time step continuity errors : sum local = 0.00742988, global = -0.000225525, cumulative = 0.0520427
smoothSolver:  Solving for omega, Initial residual = 0.00135726, Final residual = 7.17496e-05, No Iterations 3
smoothSolver:  Solving for k, Initial residual = 0.0174858, Final residual = 0.00137949, No Iterations 3
ExecutionTime = 0.68 s  ClockTime = 0 s

scalarTransport execute: age
smoothSolver:  Solving for age, Initial residual = 0.0230743, Final residual = 0.00208166, No Iterations 11

Time = 56

smoothSolver:  Solving for Ux, Initial residual = 0.0116177, Final residual = 0.00114698, No Iterations 3
smoothSolver:  Solving for Uy, Initial residual = 0.0118768, Final residual = 0.000852302, No Iterations 4
GAMG:  Solving for p, Initial residual = 0.0309207, Final residual = 0.00165605, No Iterations 2
time step continuity errors : sum local = 0.00710447, global = -0.000301593, cumulative = 0.0517411
smoothSolver:  Solving for omega, Initial residual = 0.00131776, Final residual = 6.932e-05, No Iterations 3
smoothSolver:  Solving for k, Initial residual = 0.0170352, Final residual = 0.00137423, No Iterations 3
ExecutionTime = 0.69 s  ClockTime = 0 s

scalarTransport execute: age
smoothSolver:  Solving for age, Initial residual = 0.0220465, Final residual = 0.00199254, No Iterations 11

Time = 57

smoothSolver:  Solving for Ux, Initial residual = 0.0112914, Final residual = 0.000621294, No Iterations 4
smoothSolver:  Solving for Uy, Initial residual = 0.0115047, Final residual = 0.000820293, No Iterations 4
GAMG:  Solving for p, Initial residual = 0.0305559, Final residual = 0.00165623, No Iterations 2
time step continuity errors : sum local = 0.00709508, global = -0.00040073, cumulative = 0.0513404
smoothSolver:  Solving for omega, Initial residual = 0.00127928, Final residual = 6.64642e-05, No Iterations 3
smoothSolver:  Solving for k, Initial residual = 0.0167091, Final residual = 0.00137033, No Iterations 3
ExecutionTime = 0.7 s  ClockTime = 0 s

scalarTransport execute: age
smoothSolver:  Solving for age, Initial residual = 0.0212159, Final residual = 0.00190952, No Iterations 11

Time = 58

smoothSolver:  Solving for Ux, Initial residual = 0.010882, Final residual = 0.00108485, No Iterations 3
smoothSolver:  Solving for Uy, Initial residual = 0.0112844, Final residual = 0.000790941, No Iterations 4
GAMG:  Solving for p, Initial residual = 0.0294762, Final residual = 0.00145992, No Iterations 2
time step continuity errors : sum local = 0.00625377, global = -0.000520524, cumulative = 0.0508199
smoothSolver:  Solving for omega, Initial residual = 0.00122551, Final residual = 6.2335e-05, No Iterations 3
smoothSolver:  Solving for k, Initial residual = 0.0161848, Final residual = 0.00134428, No Iterations 3
ExecutionTime = 0.71 s  ClockTime = 0 s

scalarTransport execute: age
smoothSolver:  Solving for age, Initial residual = 0.0205697, Final residual = 0.00180135, No Iterations 11

Time = 59

smoothSolver:  Solving for Ux, Initial residual = 0.0106115, Final residual = 0.00105966, No Iterations 3
smoothSolver:  Solving for Uy, Initial residual = 0.0109698, Final residual = 0.000747976, No Iterations 4
GAMG:  Solving for p, Initial residual = 0.0286291, Final residual = 0.00137207, No Iterations 2
time step continuity errors : sum local = 0.00588371, global = -0.000534108, cumulative = 0.0502858
smoothSolver:  Solving for omega, Initial residual = 0.00116973, Final residual = 5.93042e-05, No Iterations 3
smoothSolver:  Solving for k, Initial residual = 0.0156786, Final residual = 0.00130748, No Iterations 3
ExecutionTime = 0.72 s  ClockTime = 0 s

scalarTransport execute: age
smoothSolver:  Solving for age, Initial residual = 0.0198069, Final residual = 0.00170466, No Iterations 11

Time = 60

smoothSolver:  Solving for Ux, Initial residual = 0.0103289, Final residual = 0.00101685, No Iterations 3
smoothSolver:  Solving for Uy, Initial residual = 0.0105425, Final residual = 0.000717292, No Iterations 4
GAMG:  Solving for p, Initial residual = 0.0272855, Final residual = 0.00137705, No Iterations 2
time step continuity errors : sum local = 0.00592995, global = -0.000524523, cumulative = 0.0497612
smoothSolver:  Solving for omega, Initial residual = 0.00113412, Final residual = 5.69948e-05, No Iterations 3
smoothSolver:  Solving for k, Initial residual = 0.0152076, Final residual = 0.00126264, No Iterations 3
ExecutionTime = 0.73 s  ClockTime = 0 s

scalarTransport execute: age
smoothSolver:  Solving for age, Initial residual = 0.019357, Final residual = 0.00188677, No Iterations 10

Time = 61

smoothSolver:  Solving for Ux, Initial residual = 0.00987337, Final residual = 0.000950387, No Iterations 3
smoothSolver:  Solving for Uy, Initial residual = 0.0100977, Final residual = 0.000695844, No Iterations 4
GAMG:  Solving for p, Initial residual = 0.0261775, Final residual = 0.00138787, No Iterations 2
time step continuity errors : sum local = 0.00599945, global = -0.000508141, cumulative = 0.0492531
smoothSolver:  Solving for omega, Initial residual = 0.0010796, Final residual = 5.45654e-05, No Iterations 3
smoothSolver:  Solving for k, Initial residual = 0.0147013, Final residual = 0.00121829, No Iterations 3
ExecutionTime = 0.74 s  ClockTime = 0 s

scalarTransport execute: age
smoothSolver:  Solving for age, Initial residual = 0.0189358, Final residual = 0.00183189, No Iterations 10

Time = 62

smoothSolver:  Solving for Ux, Initial residual = 0.00932361, Final residual = 0.000871284, No Iterations 3
smoothSolver:  Solving for Uy, Initial residual = 0.00961636, Final residual = 0.000664944, No Iterations 4
GAMG:  Solving for p, Initial residual = 0.0247984, Final residual = 0.00137226, No Iterations 2
time step continuity errors : sum local = 0.00595051, global = -0.000474859, cumulative = 0.0487782
smoothSolver:  Solving for omega, Initial residual = 0.00102844, Final residual = 5.17053e-05, No Iterations 3
smoothSolver:  Solving for k, Initial residual = 0.014184, Final residual = 0.0011835, No Iterations 3
ExecutionTime = 0.75 s  ClockTime = 0 s

scalarTransport execute: age
smoothSolver:  Solving for age, Initial residual = 0.0182765, Final residual = 0.0017695, No Iterations 10

Time = 63

smoothSolver:  Solving for Ux, Initial residual = 0.00875664, Final residual = 0.000788961, No Iterations 3
smoothSolver:  Solving for Uy, Initial residual = 0.00901314, Final residual = 0.000622033, No Iterations 4
GAMG:  Solving for p, Initial residual = 0.0232867, Final residual = 0.00135386, No Iterations 2
time step continuity errors : sum local = 0.00588296, global = -0.000437651, cumulative = 0.0483406
smoothSolver:  Solving for omega, Initial residual = 0.000966163, Final residual = 4.85241e-05, No Iterations 3
smoothSolver:  Solving for k, Initial residual = 0.0136686, Final residual = 0.00115305, No Iterations 3
ExecutionTime = 0.76 s  ClockTime = 0 s

scalarTransport execute: age
smoothSolver:  Solving for age, Initial residual = 0.0174751, Final residual = 0.00170338, No Iterations 10

Time = 64

smoothSolver:  Solving for Ux, Initial residual = 0.00816693, Final residual = 0.000713854, No Iterations 3
smoothSolver:  Solving for Uy, Initial residual = 0.00841819, Final residual = 0.000573842, No Iterations 4
GAMG:  Solving for p, Initial residual = 0.0217978, Final residual = 0.00131742, No Iterations 2
time step continuity errors : sum local = 0.0057304, global = -0.000407748, cumulative = 0.0479328
smoothSolver:  Solving for omega, Initial residual = 0.000905129, Final residual = 4.52378e-05, No Iterations 3
smoothSolver:  Solving for k, Initial residual = 0.0131105, Final residual = 0.00110935, No Iterations 3
ExecutionTime = 0.77 s  ClockTime = 0 s

scalarTransport execute: age
smoothSolver:  Solving for age, Initial residual = 0.0165825, Final residual = 0.00164814, No Iterations 10

Time = 65

smoothSolver:  Solving for Ux, Initial residual = 0.00761202, Final residual = 0.000659257, No Iterations 3
smoothSolver:  Solving for Uy, Initial residual = 0.00784267, Final residual = 0.000527, No Iterations 4
GAMG:  Solving for p, Initial residual = 0.0205104, Final residual = 0.00124769, No Iterations 2
time step continuity errors : sum local = 0.00542327, global = -0.000385062, cumulative = 0.0475478
smoothSolver:  Solving for omega, Initial residual = 0.000854426, Final residual = 4.27083e-05, No Iterations 3
smoothSolver:  Solving for k, Initial residual = 0.0125792, Final residual = 0.00105958, No Iterations 3
ExecutionTime = 0.79 s  ClockTime = 0 s

scalarTransport execute: age
smoothSolver:  Solving for age, Initial residual = 0.0159929, Final residual = 0.00140966, No Iterations 11

Time = 66

smoothSolver:  Solving for Ux, Initial residual = 0.0071376, Final residual = 0.000630652, No Iterations 3
smoothSolver:  Solving for Uy, Initial residual = 0.00731378, Final residual = 0.000485933, No Iterations 4
GAMG:  Solving for p, Initial residual = 0.019641, Final residual = 0.00119516, No Iterations 2
time step continuity errors : sum local = 0.00518498, global = -0.000365363, cumulative = 0.0471824
smoothSolver:  Solving for omega, Initial residual = 0.000817834, Final residual = 4.11056e-05, No Iterations 3
smoothSolver:  Solving for k, Initial residual = 0.0120899, Final residual = 0.00101285, No Iterations 3
ExecutionTime = 0.8 s  ClockTime = 0 s

scalarTransport execute: age
smoothSolver:  Solving for age, Initial residual = 0.0155766, Final residual = 0.00139128, No Iterations 11

Time = 67

smoothSolver:  Solving for Ux, Initial residual = 0.0067768, Final residual = 0.000618022, No Iterations 3
smoothSolver:  Solving for Uy, Initial residual = 0.0068791, Final residual = 0.000447372, No Iterations 4
GAMG:  Solving for p, Initial residual = 0.0190066, Final residual = 0.00118499, No Iterations 2
time step continuity errors : sum local = 0.00512627, global = -0.000345316, cumulative = 0.0468371
smoothSolver:  Solving for omega, Initial residual = 0.000789592, Final residual = 3.96059e-05, No Iterations 3
smoothSolver:  Solving for k, Initial residual = 0.0117629, Final residual = 0.000980072, No Iterations 3
ExecutionTime = 0.81 s  ClockTime = 0 s

scalarTransport execute: age
smoothSolver:  Solving for age, Initial residual = 0.0152212, Final residual = 0.00137745, No Iterations 11

Time = 68

smoothSolver:  Solving for Ux, Initial residual = 0.00647965, Final residual = 0.000612426, No Iterations 3
smoothSolver:  Solving for Uy, Initial residual = 0.00651532, Final residual = 0.000412242, No Iterations 4
GAMG:  Solving for p, Initial residual = 0.0183227, Final residual = 0.00117971, No Iterations 2
time step continuity errors : sum local = 0.00508566, global = -0.000325565, cumulative = 0.0465115
smoothSolver:  Solving for omega, Initial residual = 0.000762275, Final residual = 3.74341e-05, No Iterations 3
smoothSolver:  Solving for k, Initial residual = 0.011447, Final residual = 0.000944243, No Iterations 3
ExecutionTime = 0.82 s  ClockTime = 0 s

scalarTransport execute: age
smoothSolver:  Solving for age, Initial residual = 0.0148678, Final residual = 0.0013574, No Iterations 11

Time = 69

smoothSolver:  Solving for Ux, Initial residual = 0.00623391, Final residual = 0.000603887, No Iterations 3
smoothSolver:  Solving for Uy, Initial residual = 0.0061966, Final residual = 0.000381386, No Iterations 4
GAMG:  Solving for p, Initial residual = 0.0176231, Final residual = 0.00115158, No Iterations 2
time step continuity errors : sum local = 0.00494465, global = -0.000307593, cumulative = 0.0462039
smoothSolver:  Solving for omega, Initial residual = 0.000723289, Final residual = 3.47808e-05, No Iterations 3
smoothSolver:  Solving for k, Initial residual = 0.0110489, Final residual = 0.000905397, No Iterations 3
ExecutionTime = 0.83 s  ClockTime = 0 s

scalarTransport execute: age
smoothSolver:  Solving for age, Initial residual = 0.0143119, Final residual = 0.00133252, No Iterations 11

Time = 70

smoothSolver:  Solving for Ux, Initial residual = 0.00598699, Final residual = 0.000589928, No Iterations 3
smoothSolver:  Solving for Uy, Initial residual = 0.00591815, Final residual = 0.000355059, No Iterations 4
GAMG:  Solving for p, Initial residual = 0.0168702, Final residual = 0.00111866, No Iterations 2
time step continuity errors : sum local = 0.00478411, global = -0.000295688, cumulative = 0.0459083
smoothSolver:  Solving for omega, Initial residual = 0.000677433, Final residual = 3.19452e-05, No Iterations 3
smoothSolver:  Solving for k, Initial residual = 0.010544, Final residual = 0.000860322, No Iterations 3
ExecutionTime = 0.84 s  ClockTime = 0 s

scalarTransport execute: age
smoothSolver:  Solving for age, Initial residual = 0.0136435, Final residual = 0.00130509, No Iterations 11

Time = 71

smoothSolver:  Solving for Ux, Initial residual = 0.00571595, Final residual = 0.000321701, No Iterations 4
smoothSolver:  Solving for Uy, Initial residual = 0.00570094, Final residual = 0.000336191, No Iterations 4
GAMG:  Solving for p, Initial residual = 0.0165349, Final residual = 0.00115492, No Iterations 2
time step continuity errors : sum local = 0.00491993, global = -0.000296277, cumulative = 0.045612
smoothSolver:  Solving for omega, Initial residual = 0.000640784, Final residual = 2.9536e-05, No Iterations 3
smoothSolver:  Solving for k, Initial residual = 0.00999111, Final residual = 0.000809796, No Iterations 3
ExecutionTime = 0.85 s  ClockTime = 0 s

scalarTransport execute: age
smoothSolver:  Solving for age, Initial residual = 0.013307, Final residual = 0.00128308, No Iterations 11

Time = 72

smoothSolver:  Solving for Ux, Initial residual = 0.00538318, Final residual = 0.000536812, No Iterations 3
smoothSolver:  Solving for Uy, Initial residual = 0.00549235, Final residual = 0.000331745, No Iterations 4
GAMG:  Solving for p, Initial residual = 0.0155607, Final residual = 0.000965756, No Iterations 2
time step continuity errors : sum local = 0.00410123, global = -0.000303048, cumulative = 0.0453089
smoothSolver:  Solving for omega, Initial residual = 0.000618926, Final residual = 2.84259e-05, No Iterations 3
smoothSolver:  Solving for k, Initial residual = 0.00936332, Final residual = 0.0007575, No Iterations 3
ExecutionTime = 0.86 s  ClockTime = 0 s

scalarTransport execute: age
smoothSolver:  Solving for age, Initial residual = 0.0132133, Final residual = 0.00126159, No Iterations 11

Time = 73

smoothSolver:  Solving for Ux, Initial residual = 0.00510519, Final residual = 0.000291881, No Iterations 4
smoothSolver:  Solving for Uy, Initial residual = 0.00531591, Final residual = 0.000332978, No Iterations 4
GAMG:  Solving for p, Initial residual = 0.0152037, Final residual = 0.000936863, No Iterations 2
time step continuity errors : sum local = 0.00396922, global = -0.000307395, cumulative = 0.0450015
smoothSolver:  Solving for omega, Initial residual = 0.000589386, Final residual = 2.82113e-05, No Iterations 3
smoothSolver:  Solving for k, Initial residual = 0.00884294, Final residual = 0.000711325, No Iterations 3
ExecutionTime = 0.87 s  ClockTime = 0 s

scalarTransport execute: age
smoothSolver:  Solving for age, Initial residual = 0.0132055, Final residual = 0.00124027, No Iterations 11

Time = 74

smoothSolver:  Solving for Ux, Initial residual = 0.00477428, Final residual = 0.000270968, No Iterations 4
smoothSolver:  Solving for Uy, Initial residual = 0.00515712, Final residual = 0.000338388, No Iterations 4
GAMG:  Solving for p, Initial residual = 0.0145934, Final residual = 0.00083586, No Iterations 2
time step continuity errors : sum local = 0.0035347, global = -0.000299525, cumulative = 0.044702
smoothSolver:  Solving for omega, Initial residual = 0.000572465, Final residual = 2.8002e-05, No Iterations 3
smoothSolver:  Solving for k, Initial residual = 0.00844068, Final residual = 0.000675118, No Iterations 3
ExecutionTime = 0.89 s  ClockTime = 0 s

scalarTransport execute: age
smoothSolver:  Solving for age, Initial residual = 0.0130194, Final residual = 0.00121718, No Iterations 11

Time = 75

smoothSolver:  Solving for Ux, Initial residual = 0.00449021, Final residual = 0.000446947, No Iterations 3
smoothSolver:  Solving for Uy, Initial residual = 0.00502691, Final residual = 0.000337247, No Iterations 4
GAMG:  Solving for p, Initial residual = 0.0136401, Final residual = 0.000715142, No Iterations 2
time step continuity errors : sum local = 0.00301851, global = -0.000265032, cumulative = 0.044437
smoothSolver:  Solving for omega, Initial residual = 0.000535638, Final residual = 2.68871e-05, No Iterations 3
smoothSolver:  Solving for k, Initial residual = 0.00802349, Final residual = 0.000643401, No Iterations 3
ExecutionTime = 0.9 s  ClockTime = 0 s

scalarTransport execute: age
smoothSolver:  Solving for age, Initial residual = 0.0127033, Final residual = 0.0011875, No Iterations 11

Time = 76

smoothSolver:  Solving for Ux, Initial residual = 0.00433226, Final residual = 0.000432682, No Iterations 3
smoothSolver:  Solving for Uy, Initial residual = 0.00485003, Final residual = 0.000324967, No Iterations 4
GAMG:  Solving for p, Initial residual = 0.0131491, Final residual = 0.000715245, No Iterations 2
time step continuity errors : sum local = 0.00301308, global = -0.000234445, cumulative = 0.0442025
smoothSolver:  Solving for omega, Initial residual = 0.000499197, Final residual = 2.53087e-05, No Iterations 3
smoothSolver:  Solving for k, Initial residual = 0.00767245, Final residual = 0.000612553, No Iterations 3
ExecutionTime = 0.91 s  ClockTime = 0 s

scalarTransport execute: age
smoothSolver:  Solving for age, Initial residual = 0.0123477, Final residual = 0.00115411, No Iterations 11

Time = 77

smoothSolver:  Solving for Ux, Initial residual = 0.00420359, Final residual = 0.000420214, No Iterations 3
smoothSolver:  Solving for Uy, Initial residual = 0.00465528, Final residual = 0.000302544, No Iterations 4
GAMG:  Solving for p, Initial residual = 0.0127637, Final residual = 0.000721527, No Iterations 2
time step continuity errors : sum local = 0.00303126, global = -0.000213941, cumulative = 0.0439886
smoothSolver:  Solving for omega, Initial residual = 0.000471314, Final residual = 2.33293e-05, No Iterations 3
smoothSolver:  Solving for k, Initial residual = 0.0073076, Final residual = 0.000580458, No Iterations 3
ExecutionTime = 0.92 s  ClockTime = 0 s

scalarTransport execute: age
smoothSolver:  Solving for age, Initial residual = 0.0120628, Final residual = 0.00111337, No Iterations 11

Time = 78

smoothSolver:  Solving for Ux, Initial residual = 0.00412341, Final residual = 0.000228331, No Iterations 4
smoothSolver:  Solving for Uy, Initial residual = 0.00443338, Final residual = 0.000276963, No Iterations 4
GAMG:  Solving for p, Initial residual = 0.0124901, Final residual = 0.000737426, No Iterations 2
time step continuity errors : sum local = 0.00308862, global = -0.000197201, cumulative = 0.0437914
smoothSolver:  Solving for omega, Initial residual = 0.000454625, Final residual = 2.17626e-05, No Iterations 3
smoothSolver:  Solving for k, Initial residual = 0.00692826, Final residual = 0.000546754, No Iterations 3
ExecutionTime = 0.93 s  ClockTime = 0 s

scalarTransport execute: age
smoothSolver:  Solving for age, Initial residual = 0.0118071, Final residual = 0.0010746, No Iterations 11

Time = 79

smoothSolver:  Solving for Ux, Initial residual = 0.00404311, Final residual = 0.00039706, No Iterations 3
smoothSolver:  Solving for Uy, Initial residual = 0.00423718, Final residual = 0.000258511, No Iterations 4
GAMG:  Solving for p, Initial residual = 0.0118152, Final residual = 0.000673882, No Iterations 2
time step continuity errors : sum local = 0.00281396, global = -0.000178454, cumulative = 0.0436129
smoothSolver:  Solving for omega, Initial residual = 0.000439231, Final residual = 2.07509e-05, No Iterations 3
smoothSolver:  Solving for k, Initial residual = 0.00648588, Final residual = 0.000508211, No Iterations 3
ExecutionTime = 0.94 s  ClockTime = 0 s

scalarTransport execute: age
smoothSolver:  Solving for age, Initial residual = 0.0115706, Final residual = 0.00104832, No Iterations 11

Time = 80

smoothSolver:  Solving for Ux, Initial residual = 0.00395574, Final residual = 0.000389488, No Iterations 3
smoothSolver:  Solving for Uy, Initial residual = 0.00408502, Final residual = 0.000247694, No Iterations 4
GAMG:  Solving for p, Initial residual = 0.0113238, Final residual = 0.000660218, No Iterations 2
time step continuity errors : sum local = 0.00274967, global = -0.000159048, cumulative = 0.0434539
smoothSolver:  Solving for omega, Initial residual = 0.000426328, Final residual = 2.04273e-05, No Iterations 3
smoothSolver:  Solving for k, Initial residual = 0.00612199, Final residual = 0.000472584, No Iterations 3
ExecutionTime = 0.95 s  ClockTime = 0 s

scalarTransport execute: age
smoothSolver:  Solving for age, Initial residual = 0.0113562, Final residual = 0.00102419, No Iterations 11

Time = 81

smoothSolver:  Solving for Ux, Initial residual = 0.0038327, Final residual = 0.000373945, No Iterations 3
smoothSolver:  Solving for Uy, Initial residual = 0.00394245, Final residual = 0.000245284, No Iterations 4
GAMG:  Solving for p, Initial residual = 0.0107013, Final residual = 0.00066786, No Iterations 2
time step continuity errors : sum local = 0.00277625, global = -0.000147299, cumulative = 0.0433066
smoothSolver:  Solving for omega, Initial residual = 0.000411467, Final residual = 2.02283e-05, No Iterations 3
smoothSolver:  Solving for k, Initial residual = 0.00578475, Final residual = 0.000443089, No Iterations 3
ExecutionTime = 0.96 s  ClockTime = 0 s

scalarTransport execute: age
smoothSolver:  Solving for age, Initial residual = 0.0109259, Final residual = 0.00099663, No Iterations 11

Time = 82

smoothSolver:  Solving for Ux, Initial residual = 0.0037074, Final residual = 0.000354833, No Iterations 3
smoothSolver:  Solving for Uy, Initial residual = 0.00380124, Final residual = 0.000245233, No Iterations 4
GAMG:  Solving for p, Initial residual = 0.0100342, Final residual = 0.000644931, No Iterations 2
time step continuity errors : sum local = 0.0026775, global = -0.000134276, cumulative = 0.0431723
smoothSolver:  Solving for omega, Initial residual = 0.000388977, Final residual = 1.95971e-05, No Iterations 3
smoothSolver:  Solving for k, Initial residual = 0.00550053, Final residual = 0.000418937, No Iterations 3
ExecutionTime = 0.97 s  ClockTime = 0 s

scalarTransport execute: age
smoothSolver:  Solving for age, Initial residual = 0.010367, Final residual = 0.00097356, No Iterations 11

Time = 83

smoothSolver:  Solving for Ux, Initial residual = 0.00357775, Final residual = 0.000341312, No Iterations 3
smoothSolver:  Solving for Uy, Initial residual = 0.00366021, Final residual = 0.000242192, No Iterations 4
GAMG:  Solving for p, Initial residual = 0.00948306, Final residual = 0.000621565, No Iterations 2
time step continuity errors : sum local = 0.00257911, global = -0.000120587, cumulative = 0.0430517
smoothSolver:  Solving for omega, Initial residual = 0.00036451, Final residual = 1.8413e-05, No Iterations 3
smoothSolver:  Solving for k, Initial residual = 0.00526319, Final residual = 0.000399182, No Iterations 3
ExecutionTime = 0.99 s  ClockTime = 1 s

scalarTransport execute: age
smoothSolver:  Solving for age, Initial residual = 0.00979861, Final residual = 0.000948441, No Iterations 11

Time = 84

smoothSolver:  Solving for Ux, Initial residual = 0.00346809, Final residual = 0.000337247, No Iterations 3
smoothSolver:  Solving for Uy, Initial residual = 0.00352417, Final residual = 0.000234386, No Iterations 4
GAMG:  Solving for p, Initial residual = 0.00910301, Final residual = 0.000613069, No Iterations 2
time step continuity errors : sum local = 0.00254333, global = -0.000108947, cumulative = 0.0429428
smoothSolver:  Solving for omega, Initial residual = 0.000345648, Final residual = 1.72556e-05, No Iterations 3
smoothSolver:  Solving for k, Initial residual = 0.00504141, Final residual = 0.000384646, No Iterations 3
ExecutionTime = 1 s  ClockTime = 1 s

scalarTransport execute: age
smoothSolver:  Solving for age, Initial residual = 0.00941948, Final residual = 0.000923398, No Iterations 11

Time = 85

smoothSolver:  Solving for Ux, Initial residual = 0.00338112, Final residual = 0.000336067, No Iterations 3
smoothSolver:  Solving for Uy, Initial residual = 0.00341973, Final residual = 0.000228094, No Iterations 4
GAMG:  Solving for p, Initial residual = 0.00882344, Final residual = 0.000626328, No Iterations 2
time step continuity errors : sum local = 0.00259803, global = -0.000101073, cumulative = 0.0428417
smoothSolver:  Solving for omega, Initial residual = 0.000336507, Final residual = 1.68599e-05, No Iterations 3
smoothSolver:  Solving for k, Initial residual = 0.00485447, Final residual = 0.000370206, No Iterations 3
ExecutionTime = 1.01 s  ClockTime = 1 s

scalarTransport execute: age
smoothSolver:  Solving for age, Initial residual = 0.00918523, Final residual = 0.000895956, No Iterations 11

Time = 86

smoothSolver:  Solving for Ux, Initial residual = 0.00327103, Final residual = 0.000187138, No Iterations 4
smoothSolver:  Solving for Uy, Initial residual = 0.00331966, Final residual = 0.000224587, No Iterations 4
GAMG:  Solving for p, Initial residual = 0.00870549, Final residual = 0.000691869, No Iterations 2
time step continuity errors : sum local = 0.00286923, global = -9.51809e-05, cumulative = 0.0427465
smoothSolver:  Solving for omega, Initial residual = 0.000340872, Final residual = 1.74125e-05, No Iterations 3
smoothSolver:  Solving for k, Initial residual = 0.00472741, Final residual = 0.000358932, No Iterations 3
ExecutionTime = 1.02 s  ClockTime = 1 s

scalarTransport execute: age
smoothSolver:  Solving for age, Initial residual = 0.00906603, Final residual = 0.000875484, No Iterations 11

Time = 87

smoothSolver:  Solving for Ux, Initial residual = 0.00312832, Final residual = 0.00018014, No Iterations 4
smoothSolver:  Solving for Uy, Initial residual = 0.00323514, Final residual = 0.000222826, No Iterations 4
GAMG:  Solving for p, Initial residual = 0.00841461, Final residual = 0.0007014, No Iterations 2
time step continuity errors : sum local = 0.00290775, global = -8.95812e-05, cumulative = 0.0426569
smoothSolver:  Solving for omega, Initial residual = 0.000339215, Final residual = 1.76606e-05, No Iterations 3
smoothSolver:  Solving for k, Initial residual = 0.00458407, Final residual = 0.000346975, No Iterations 3
ExecutionTime = 1.03 s  ClockTime = 1 s

scalarTransport execute: age
smoothSolver:  Solving for age, Initial residual = 0.0090064, Final residual = 0.000858525, No Iterations 11

Time = 88

smoothSolver:  Solving for Ux, Initial residual = 0.00298924, Final residual = 0.000171474, No Iterations 4
smoothSolver:  Solving for Uy, Initial residual = 0.00313554, Final residual = 0.00022071, No Iterations 4
GAMG:  Solving for p, Initial residual = 0.00809424, Final residual = 0.000674814, No Iterations 2
time step continuity errors : sum local = 0.00279601, global = -8.15694e-05, cumulative = 0.0425754
smoothSolver:  Solving for omega, Initial residual = 0.000327992, Final residual = 1.73117e-05, No Iterations 3
smoothSolver:  Solving for k, Initial residual = 0.00439634, Final residual = 0.000333445, No Iterations 3
ExecutionTime = 1.04 s  ClockTime = 1 s

scalarTransport execute: age
smoothSolver:  Solving for age, Initial residual = 0.00882818, Final residual = 0.000842427, No Iterations 11

Time = 89

smoothSolver:  Solving for Ux, Initial residual = 0.00284148, Final residual = 0.000161439, No Iterations 4
smoothSolver:  Solving for Uy, Initial residual = 0.00300306, Final residual = 0.000215778, No Iterations 4
GAMG:  Solving for p, Initial residual = 0.00777743, Final residual = 0.000637828, No Iterations 2
time step continuity errors : sum local = 0.00264082, global = -7.01536e-05, cumulative = 0.0425052
smoothSolver:  Solving for omega, Initial residual = 0.000309114, Final residual = 1.63438e-05, No Iterations 3
smoothSolver:  Solving for k, Initial residual = 0.00416325, Final residual = 0.000318608, No Iterations 3
ExecutionTime = 1.05 s  ClockTime = 1 s

scalarTransport execute: age
smoothSolver:  Solving for age, Initial residual = 0.0085945, Final residual = 0.000828234, No Iterations 11

Time = 90

smoothSolver:  Solving for Ux, Initial residual = 0.00267127, Final residual = 0.00015278, No Iterations 4
smoothSolver:  Solving for Uy, Initial residual = 0.00287564, Final residual = 0.000206628, No Iterations 4
GAMG:  Solving for p, Initial residual = 0.00745239, Final residual = 0.000605282, No Iterations 2
time step continuity errors : sum local = 0.00250384, global = -5.48077e-05, cumulative = 0.0424504
smoothSolver:  Solving for omega, Initial residual = 0.000287771, Final residual = 1.50182e-05, No Iterations 3
smoothSolver:  Solving for k, Initial residual = 0.00390864, Final residual = 0.000302553, No Iterations 3
ExecutionTime = 1.06 s  ClockTime = 1 s

scalarTransport execute: age
smoothSolver:  Solving for age, Initial residual = 0.00825112, Final residual = 0.000817293, No Iterations 11

Time = 91

smoothSolver:  Solving for Ux, Initial residual = 0.00250965, Final residual = 0.000147369, No Iterations 4
smoothSolver:  Solving for Uy, Initial residual = 0.00275712, Final residual = 0.000198532, No Iterations 4
GAMG:  Solving for p, Initial residual = 0.00719565, Final residual = 0.000587027, No Iterations 2
time step continuity errors : sum local = 0.00242602, global = -3.90401e-05, cumulative = 0.0424114
smoothSolver:  Solving for omega, Initial residual = 0.000273803, Final residual = 1.39685e-05, No Iterations 3
smoothSolver:  Solving for k, Initial residual = 0.00365626, Final residual = 0.000283285, No Iterations 3
ExecutionTime = 1.07 s  ClockTime = 1 s

scalarTransport execute: age
smoothSolver:  Solving for age, Initial residual = 0.00797524, Final residual = 0.000702174, No Iterations 12

Time = 92

smoothSolver:  Solving for Ux, Initial residual = 0.0023719, Final residual = 0.000143697, No Iterations 4
smoothSolver:  Solving for Uy, Initial residual = 0.00267172, Final residual = 0.000196174, No Iterations 4
GAMG:  Solving for p, Initial residual = 0.00696034, Final residual = 0.000582151, No Iterations 2
time step continuity errors : sum local = 0.00240362, global = -2.55655e-05, cumulative = 0.0423858
smoothSolver:  Solving for omega, Initial residual = 0.000265718, Final residual = 1.38174e-05, No Iterations 3
smoothSolver:  Solving for k, Initial residual = 0.00342628, Final residual = 0.000264733, No Iterations 3
ExecutionTime = 1.09 s  ClockTime = 1 s

scalarTransport execute: age
smoothSolver:  Solving for age, Initial residual = 0.0077857, Final residual = 0.000697525, No Iterations 12

Time = 93

smoothSolver:  Solving for Ux, Initial residual = 0.00227426, Final residual = 0.00014052, No Iterations 4
smoothSolver:  Solving for Uy, Initial residual = 0.00260473, Final residual = 0.000196705, No Iterations 4
GAMG:  Solving for p, Initial residual = 0.00671827, Final residual = 0.000581044, No Iterations 2
time step continuity errors : sum local = 0.00239696, global = -1.68279e-05, cumulative = 0.042369
smoothSolver:  Solving for omega, Initial residual = 0.000262242, Final residual = 1.40019e-05, No Iterations 3
smoothSolver:  Solving for k, Initial residual = 0.00324099, Final residual = 0.000249359, No Iterations 3
ExecutionTime = 1.1 s  ClockTime = 1 s

scalarTransport execute: age
smoothSolver:  Solving for age, Initial residual = 0.0076874, Final residual = 0.000692713, No Iterations 12

Time = 94

smoothSolver:  Solving for Ux, Initial residual = 0.00218678, Final residual = 0.000135705, No Iterations 4
smoothSolver:  Solving for Uy, Initial residual = 0.00255228, Final residual = 0.000196919, No Iterations 4
GAMG:  Solving for p, Initial residual = 0.00640361, Final residual = 0.000567827, No Iterations 2
time step continuity errors : sum local = 0.00234097, global = -1.45135e-05, cumulative = 0.0423545
smoothSolver:  Solving for omega, Initial residual = 0.000254906, Final residual = 1.40275e-05, No Iterations 3
smoothSolver:  Solving for k, Initial residual = 0.00309536, Final residual = 0.000237542, No Iterations 3
ExecutionTime = 1.11 s  ClockTime = 1 s

scalarTransport execute: age
smoothSolver:  Solving for age, Initial residual = 0.00750359, Final residual = 0.00068197, No Iterations 12

Time = 95

smoothSolver:  Solving for Ux, Initial residual = 0.00209642, Final residual = 0.000129282, No Iterations 4
smoothSolver:  Solving for Uy, Initial residual = 0.00248279, Final residual = 0.000193801, No Iterations 4
GAMG:  Solving for p, Initial residual = 0.00607758, Final residual = 0.000534361, No Iterations 2
time step continuity errors : sum local = 0.00220221, global = -1.91075e-05, cumulative = 0.0423354
smoothSolver:  Solving for omega, Initial residual = 0.000244732, Final residual = 1.3739e-05, No Iterations 3
smoothSolver:  Solving for k, Initial residual = 0.00299141, Final residual = 0.000228406, No Iterations 3
ExecutionTime = 1.12 s  ClockTime = 1 s

scalarTransport execute: age
smoothSolver:  Solving for age, Initial residual = 0.00725463, Final residual = 0.000668773, No Iterations 12

Time = 96

smoothSolver:  Solving for Ux, Initial residual = 0.00200787, Final residual = 0.000122593, No Iterations 4
smoothSolver:  Solving for Uy, Initial residual = 0.00236722, Final residual = 0.000185838, No Iterations 4
GAMG:  Solving for p, Initial residual = 0.0057984, Final residual = 0.000502604, No Iterations 2
[...]

smoothSolver:  Solving for Ux, Initial residual = 5.91093e-07, Final residual = 5.31976e-08, No Iterations 3
smoothSolver:  Solving for Uy, Initial residual = 5.97669e-07, Final residual = 4.13832e-08, No Iterations 4
GAMG:  Solving for p, Initial residual = 1.40584e-06, Final residual = 1.20786e-07, No Iterations 2
time step continuity errors : sum local = 4.92566e-07, global = -2.4305e-08, cumulative = 0.039614
smoothSolver:  Solving for omega, Initial residual = 4.99413e-08, Final residual = 6.32222e-09, No Iterations 2
smoothSolver:  Solving for k, Initial residual = 4.59098e-07, Final residual = 3.12122e-08, No Iterations 3
ExecutionTime = 6.09 s  ClockTime = 6 s

scalarTransport execute: age
smoothSolver:  Solving for age, Initial residual = 0.000480817, Final residual = 4.65296e-05, No Iterations 14

Time = 538

smoothSolver:  Solving for Ux, Initial residual = 5.85281e-07, Final residual = 5.30564e-08, No Iterations 3
smoothSolver:  Solving for Uy, Initial residual = 5.91524e-07, Final residual = 4.09488e-08, No Iterations 4
GAMG:  Solving for p, Initial residual = 1.39099e-06, Final residual = 1.19825e-07, No Iterations 2
time step continuity errors : sum local = 4.8865e-07, global = -2.41792e-08, cumulative = 0.0396139
smoothSolver:  Solving for omega, Initial residual = 4.93342e-08, Final residual = 6.23639e-09, No Iterations 2
smoothSolver:  Solving for k, Initial residual = 4.55599e-07, Final residual = 3.08635e-08, No Iterations 3
ExecutionTime = 6.1 s  ClockTime = 6 s

scalarTransport execute: age
smoothSolver:  Solving for age, Initial residual = 0.00047977, Final residual = 4.64294e-05, No Iterations 14

Time = 539

smoothSolver:  Solving for Ux, Initial residual = 5.78737e-07, Final residual = 5.27312e-08, No Iterations 3
smoothSolver:  Solving for Uy, Initial residual = 5.84622e-07, Final residual = 4.03702e-08, No Iterations 4
GAMG:  Solving for p, Initial residual = 1.37318e-06, Final residual = 1.18488e-07, No Iterations 2
time step continuity errors : sum local = 4.83194e-07, global = -2.40603e-08, cumulative = 0.0396139
smoothSolver:  Solving for omega, Initial residual = 4.8459e-08, Final residual = 6.11094e-09, No Iterations 2
smoothSolver:  Solving for k, Initial residual = 4.50956e-07, Final residual = 3.04021e-08, No Iterations 3
ExecutionTime = 6.12 s  ClockTime = 6 s

scalarTransport execute: age
smoothSolver:  Solving for age, Initial residual = 0.000478729, Final residual = 4.63293e-05, No Iterations 14

Time = 540

smoothSolver:  Solving for Ux, Initial residual = 5.7128e-07, Final residual = 5.2222e-08, No Iterations 3
smoothSolver:  Solving for Uy, Initial residual = 5.76506e-07, Final residual = 3.96859e-08, No Iterations 4
GAMG:  Solving for p, Initial residual = 1.35248e-06, Final residual = 1.16564e-07, No Iterations 2
time step continuity errors : sum local = 4.75351e-07, global = -2.39499e-08, cumulative = 0.0396139
smoothSolver:  Solving for omega, Initial residual = 4.74554e-08, Final residual = 5.96305e-09, No Iterations 2
smoothSolver:  Solving for k, Initial residual = 4.44765e-07, Final residual = 2.97975e-08, No Iterations 3
ExecutionTime = 6.13 s  ClockTime = 6 s

scalarTransport execute: age
smoothSolver:  Solving for age, Initial residual = 0.000477693, Final residual = 4.62294e-05, No Iterations 14

Time = 541

smoothSolver:  Solving for Ux, Initial residual = 5.63064e-07, Final residual = 5.15897e-08, No Iterations 3
smoothSolver:  Solving for Uy, Initial residual = 5.67626e-07, Final residual = 3.89913e-08, No Iterations 4
GAMG:  Solving for p, Initial residual = 1.33124e-06, Final residual = 1.14786e-07, No Iterations 2
time step continuity errors : sum local = 4.68099e-07, global = -2.38488e-08, cumulative = 0.0396139
smoothSolver:  Solving for omega, Initial residual = 4.65971e-08, Final residual = 5.84109e-09, No Iterations 2
smoothSolver:  Solving for k, Initial residual = 4.37244e-07, Final residual = 2.8997e-08, No Iterations 3
ExecutionTime = 6.14 s  ClockTime = 6 s

scalarTransport execute: age
smoothSolver:  Solving for age, Initial residual = 0.000476661, Final residual = 4.61298e-05, No Iterations 14

Time = 542

smoothSolver:  Solving for Ux, Initial residual = 5.54277e-07, Final residual = 5.08239e-08, No Iterations 3
smoothSolver:  Solving for Uy, Initial residual = 5.58366e-07, Final residual = 3.84101e-08, No Iterations 4
GAMG:  Solving for p, Initial residual = 1.30887e-06, Final residual = 1.13536e-07, No Iterations 2
time step continuity errors : sum local = 4.63002e-07, global = -2.37548e-08, cumulative = 0.0396138
smoothSolver:  Solving for omega, Initial residual = 4.58499e-08, Final residual = 5.74995e-09, No Iterations 2
smoothSolver:  Solving for k, Initial residual = 4.28776e-07, Final residual = 2.81141e-08, No Iterations 3
ExecutionTime = 6.15 s  ClockTime = 6 s

scalarTransport execute: age
smoothSolver:  Solving for age, Initial residual = 0.000475635, Final residual = 4.60307e-05, No Iterations 14

Time = 543

smoothSolver:  Solving for Ux, Initial residual = 5.45159e-07, Final residual = 4.98729e-08, No Iterations 3
smoothSolver:  Solving for Uy, Initial residual = 5.49369e-07, Final residual = 3.79202e-08, No Iterations 4
GAMG:  Solving for p, Initial residual = 1.2863e-06, Final residual = 1.12193e-07, No Iterations 2
time step continuity errors : sum local = 4.57526e-07, global = -2.36622e-08, cumulative = 0.0396138
smoothSolver:  Solving for omega, Initial residual = 4.51487e-08, Final residual = 5.66966e-09, No Iterations 2
smoothSolver:  Solving for k, Initial residual = 4.19807e-07, Final residual = 2.7276e-08, No Iterations 3
ExecutionTime = 6.16 s  ClockTime = 6 s

scalarTransport execute: age
smoothSolver:  Solving for age, Initial residual = 0.000474613, Final residual = 4.59321e-05, No Iterations 14

Time = 544

smoothSolver:  Solving for Ux, Initial residual = 5.35858e-07, Final residual = 4.87759e-08, No Iterations 3
smoothSolver:  Solving for Uy, Initial residual = 5.40688e-07, Final residual = 3.7376e-08, No Iterations 4
GAMG:  Solving for p, Initial residual = 1.26309e-06, Final residual = 1.10542e-07, No Iterations 2
time step continuity errors : sum local = 4.50791e-07, global = -2.35629e-08, cumulative = 0.0396138
smoothSolver:  Solving for omega, Initial residual = 4.44074e-08, Final residual = 5.5897e-09, No Iterations 2
smoothSolver:  Solving for k, Initial residual = 4.10726e-07, Final residual = 2.66875e-08, No Iterations 3
ExecutionTime = 6.17 s  ClockTime = 6 s

scalarTransport execute: age
smoothSolver:  Solving for age, Initial residual = 0.000473594, Final residual = 4.5834e-05, No Iterations 14

Time = 545

smoothSolver:  Solving for Ux, Initial residual = 5.26468e-07, Final residual = 4.75816e-08, No Iterations 3
smoothSolver:  Solving for Uy, Initial residual = 5.31589e-07, Final residual = 3.66929e-08, No Iterations 4
GAMG:  Solving for p, Initial residual = 1.23948e-06, Final residual = 1.0857e-07, No Iterations 2
time step continuity errors : sum local = 4.42751e-07, global = -2.34483e-08, cumulative = 0.0396138
smoothSolver:  Solving for omega, Initial residual = 4.3606e-08, Final residual = 5.50397e-09, No Iterations 2
smoothSolver:  Solving for k, Initial residual = 4.01829e-07, Final residual = 2.64092e-08, No Iterations 3
ExecutionTime = 6.18 s  ClockTime = 6 s

scalarTransport execute: age
smoothSolver:  Solving for age, Initial residual = 0.000472579, Final residual = 4.57362e-05, No Iterations 14

Time = 546

smoothSolver:  Solving for Ux, Initial residual = 5.16693e-07, Final residual = 4.63656e-08, No Iterations 3
smoothSolver:  Solving for Uy, Initial residual = 5.21897e-07, Final residual = 3.58953e-08, No Iterations 4
GAMG:  Solving for p, Initial residual = 1.21807e-06, Final residual = 1.06388e-07, No Iterations 2
time step continuity errors : sum local = 4.3385e-07, global = -2.33115e-08, cumulative = 0.0396137
smoothSolver:  Solving for omega, Initial residual = 4.28189e-08, Final residual = 5.40339e-09, No Iterations 2
smoothSolver:  Solving for k, Initial residual = 3.93687e-07, Final residual = 2.63463e-08, No Iterations 3
ExecutionTime = 6.19 s  ClockTime = 6 s

scalarTransport execute: age
smoothSolver:  Solving for age, Initial residual = 0.000471567, Final residual = 4.56391e-05, No Iterations 14

Time = 547

smoothSolver:  Solving for Ux, Initial residual = 5.07191e-07, Final residual = 4.52547e-08, No Iterations 3
smoothSolver:  Solving for Uy, Initial residual = 5.1241e-07, Final residual = 3.51305e-08, No Iterations 4
GAMG:  Solving for p, Initial residual = 1.19884e-06, Final residual = 1.04221e-07, No Iterations 2
time step continuity errors : sum local = 4.25014e-07, global = -2.31478e-08, cumulative = 0.0396137
smoothSolver:  Solving for omega, Initial residual = 4.21044e-08, Final residual = 5.31269e-09, No Iterations 2
smoothSolver:  Solving for k, Initial residual = 3.86528e-07, Final residual = 2.62483e-08, No Iterations 3
ExecutionTime = 6.2 s  ClockTime = 6 s

scalarTransport execute: age
smoothSolver:  Solving for age, Initial residual = 0.000470559, Final residual = 4.55426e-05, No Iterations 14

Time = 548

smoothSolver:  Solving for Ux, Initial residual = 4.98625e-07, Final residual = 4.43506e-08, No Iterations 3
smoothSolver:  Solving for Uy, Initial residual = 5.03715e-07, Final residual = 3.45207e-08, No Iterations 4
GAMG:  Solving for p, Initial residual = 1.18195e-06, Final residual = 1.02198e-07, No Iterations 2
time step continuity errors : sum local = 4.16766e-07, global = -2.29555e-08, cumulative = 0.0396137
smoothSolver:  Solving for omega, Initial residual = 4.15429e-08, Final residual = 5.24842e-09, No Iterations 2
smoothSolver:  Solving for k, Initial residual = 3.8123e-07, Final residual = 2.60469e-08, No Iterations 3
ExecutionTime = 6.22 s  ClockTime = 6 s

scalarTransport execute: age
smoothSolver:  Solving for age, Initial residual = 0.000469555, Final residual = 4.54464e-05, No Iterations 14

Time = 549

smoothSolver:  Solving for Ux, Initial residual = 4.91458e-07, Final residual = 4.37874e-08, No Iterations 3
smoothSolver:  Solving for Uy, Initial residual = 4.96879e-07, Final residual = 3.41829e-08, No Iterations 4
GAMG:  Solving for p, Initial residual = 1.16716e-06, Final residual = 1.0043e-07, No Iterations 2
time step continuity errors : sum local = 4.09557e-07, global = -2.27358e-08, cumulative = 0.0396137
smoothSolver:  Solving for omega, Initial residual = 4.11426e-08, Final residual = 5.21409e-09, No Iterations 2
smoothSolver:  Solving for k, Initial residual = 3.77752e-07, Final residual = 2.57868e-08, No Iterations 3
ExecutionTime = 6.23 s  ClockTime = 6 s

scalarTransport execute: age
smoothSolver:  Solving for age, Initial residual = 0.000468555, Final residual = 4.53506e-05, No Iterations 14

Time = 550

smoothSolver:  Solving for Ux, Initial residual = 4.85932e-07, Final residual = 4.36081e-08, No Iterations 3
smoothSolver:  Solving for Uy, Initial residual = 4.91193e-07, Final residual = 3.38956e-08, No Iterations 4
GAMG:  Solving for p, Initial residual = 1.15533e-06, Final residual = 9.90316e-08, No Iterations 2
time step continuity errors : sum local = 4.03852e-07, global = -2.24925e-08, cumulative = 0.0396136
smoothSolver:  Solving for omega, Initial residual = 4.0815e-08, Final residual = 5.1747e-09, No Iterations 2
smoothSolver:  Solving for k, Initial residual = 3.74548e-07, Final residual = 2.55109e-08, No Iterations 3
ExecutionTime = 6.24 s  ClockTime = 6 s

scalarTransport execute: age
smoothSolver:  Solving for age, Initial residual = 0.000467558, Final residual = 4.5255e-05, No Iterations 14

Time = 551

smoothSolver:  Solving for Ux, Initial residual = 4.80975e-07, Final residual = 4.35169e-08, No Iterations 3
smoothSolver:  Solving for Uy, Initial residual = 4.85758e-07, Final residual = 3.35535e-08, No Iterations 4
GAMG:  Solving for p, Initial residual = 1.14358e-06, Final residual = 9.81572e-08, No Iterations 2
time step continuity errors : sum local = 4.00287e-07, global = -2.22325e-08, cumulative = 0.0396136
smoothSolver:  Solving for omega, Initial residual = 4.03586e-08, Final residual = 5.11344e-09, No Iterations 2
smoothSolver:  Solving for k, Initial residual = 3.71239e-07, Final residual = 2.52071e-08, No Iterations 3
ExecutionTime = 6.25 s  ClockTime = 6 s

scalarTransport execute: age
smoothSolver:  Solving for age, Initial residual = 0.000466566, Final residual = 4.51596e-05, No Iterations 14

Time = 552

smoothSolver:  Solving for Ux, Initial residual = 4.75521e-07, Final residual = 4.33183e-08, No Iterations 3
smoothSolver:  Solving for Uy, Initial residual = 4.8002e-07, Final residual = 3.31165e-08, No Iterations 4
GAMG:  Solving for p, Initial residual = 1.12959e-06, Final residual = 9.71802e-08, No Iterations 2
time step continuity errors : sum local = 3.96303e-07, global = -2.19649e-08, cumulative = 0.0396136
smoothSolver:  Solving for omega, Initial residual = 3.97018e-08, Final residual = 5.02315e-09, No Iterations 2
smoothSolver:  Solving for k, Initial residual = 3.6731e-07, Final residual = 2.48358e-08, No Iterations 3
ExecutionTime = 6.26 s  ClockTime = 6 s

scalarTransport execute: age
smoothSolver:  Solving for age, Initial residual = 0.00046558, Final residual = 4.50645e-05, No Iterations 14

Time = 553

smoothSolver:  Solving for Ux, Initial residual = 4.69507e-07, Final residual = 4.29605e-08, No Iterations 3
smoothSolver:  Solving for Uy, Initial residual = 4.73485e-07, Final residual = 3.26016e-08, No Iterations 4
GAMG:  Solving for p, Initial residual = 1.11363e-06, Final residual = 9.58439e-08, No Iterations 2
time step continuity errors : sum local = 3.90853e-07, global = -2.17002e-08, cumulative = 0.0396136
smoothSolver:  Solving for omega, Initial residual = 3.89118e-08, Final residual = 4.91172e-09, No Iterations 2
smoothSolver:  Solving for k, Initial residual = 3.62494e-07, Final residual = 2.43644e-08, No Iterations 3
ExecutionTime = 6.27 s  ClockTime = 6 s

scalarTransport execute: age
smoothSolver:  Solving for age, Initial residual = 0.000464598, Final residual = 4.49697e-05, No Iterations 14

Time = 554

smoothSolver:  Solving for Ux, Initial residual = 4.6296e-07, Final residual = 4.24885e-08, No Iterations 3
smoothSolver:  Solving for Uy, Initial residual = 4.66448e-07, Final residual = 3.20751e-08, No Iterations 4
GAMG:  Solving for p, Initial residual = 1.09679e-06, Final residual = 9.44534e-08, No Iterations 2
time step continuity errors : sum local = 3.85183e-07, global = -2.1448e-08, cumulative = 0.0396136
smoothSolver:  Solving for omega, Initial residual = 3.82121e-08, Final residual = 4.81107e-09, No Iterations 2
smoothSolver:  Solving for k, Initial residual = 3.56685e-07, Final residual = 2.37823e-08, No Iterations 3
ExecutionTime = 6.28 s  ClockTime = 6 s

scalarTransport execute: age
smoothSolver:  Solving for age, Initial residual = 0.000463621, Final residual = 4.48753e-05, No Iterations 14

Time = 555

smoothSolver:  Solving for Ux, Initial residual = 4.55813e-07, Final residual = 4.19009e-08, No Iterations 3
smoothSolver:  Solving for Uy, Initial residual = 4.59011e-07, Final residual = 3.16112e-08, No Iterations 4
GAMG:  Solving for p, Initial residual = 1.07916e-06, Final residual = 9.34925e-08, No Iterations 2
time step continuity errors : sum local = 3.81264e-07, global = -2.12151e-08, cumulative = 0.0396135
smoothSolver:  Solving for omega, Initial residual = 3.76148e-08, Final residual = 4.73391e-09, No Iterations 2
smoothSolver:  Solving for k, Initial residual = 3.50265e-07, Final residual = 2.31057e-08, No Iterations 3
ExecutionTime = 6.28 s  ClockTime = 6 s

scalarTransport execute: age
smoothSolver:  Solving for age, Initial residual = 0.000462648, Final residual = 4.47814e-05, No Iterations 14

Time = 556

smoothSolver:  Solving for Ux, Initial residual = 4.48454e-07, Final residual = 4.11706e-08, No Iterations 3
smoothSolver:  Solving for Uy, Initial residual = 4.51766e-07, Final residual = 3.12426e-08, No Iterations 4
GAMG:  Solving for p, Initial residual = 1.06136e-06, Final residual = 9.25243e-08, No Iterations 2
time step continuity errors : sum local = 3.77316e-07, global = -2.10047e-08, cumulative = 0.0396135
smoothSolver:  Solving for omega, Initial residual = 3.70804e-08, Final residual = 4.66843e-09, No Iterations 2
smoothSolver:  Solving for k, Initial residual = 3.4346e-07, Final residual = 2.24493e-08, No Iterations 3
ExecutionTime = 6.29 s  ClockTime = 6 s

scalarTransport execute: age
smoothSolver:  Solving for age, Initial residual = 0.000461678, Final residual = 4.4688e-05, No Iterations 14

Time = 557

smoothSolver:  Solving for Ux, Initial residual = 4.41029e-07, Final residual = 4.0301e-08, No Iterations 3
smoothSolver:  Solving for Uy, Initial residual = 4.44967e-07, Final residual = 3.0844e-08, No Iterations 4
GAMG:  Solving for p, Initial residual = 1.04294e-06, Final residual = 9.13387e-08, No Iterations 2
time step continuity errors : sum local = 3.72481e-07, global = -2.08165e-08, cumulative = 0.0396135
smoothSolver:  Solving for omega, Initial residual = 3.65393e-08, Final residual = 4.60581e-09, No Iterations 2
smoothSolver:  Solving for k, Initial residual = 3.36766e-07, Final residual = 2.19504e-08, No Iterations 3
ExecutionTime = 6.32 s  ClockTime = 6 s

scalarTransport execute: age
smoothSolver:  Solving for age, Initial residual = 0.000460711, Final residual = 4.4595e-05, No Iterations 14

Time = 558

smoothSolver:  Solving for Ux, Initial residual = 4.33612e-07, Final residual = 3.93495e-08, No Iterations 3
smoothSolver:  Solving for Uy, Initial residual = 4.37975e-07, Final residual = 3.03409e-08, No Iterations 4
GAMG:  Solving for p, Initial residual = 1.02408e-06, Final residual = 8.98799e-08, No Iterations 2
time step continuity errors : sum local = 3.66532e-07, global = -2.06474e-08, cumulative = 0.0396135
smoothSolver:  Solving for omega, Initial residual = 3.59556e-08, Final residual = 4.53876e-09, No Iterations 2
smoothSolver:  Solving for k, Initial residual = 3.3015e-07, Final residual = 2.16888e-08, No Iterations 3
ExecutionTime = 6.33 s  ClockTime = 6 s

scalarTransport execute: age
smoothSolver:  Solving for age, Initial residual = 0.000459748, Final residual = 4.45024e-05, No Iterations 14

Time = 559

smoothSolver:  Solving for Ux, Initial residual = 4.2591e-07, Final residual = 3.83622e-08, No Iterations 3
smoothSolver:  Solving for Uy, Initial residual = 4.30429e-07, Final residual = 2.97254e-08, No Iterations 4
GAMG:  Solving for p, Initial residual = 1.00631e-06, Final residual = 8.82361e-08, No Iterations 2
time step continuity errors : sum local = 3.59828e-07, global = -2.0493e-08, cumulative = 0.0396135
smoothSolver:  Solving for omega, Initial residual = 3.53688e-08, Final residual = 4.46248e-09, No Iterations 2
smoothSolver:  Solving for k, Initial residual = 3.23944e-07, Final residual = 2.16042e-08, No Iterations 3
ExecutionTime = 6.34 s  ClockTime = 6 s

scalarTransport execute: age
smoothSolver:  Solving for age, Initial residual = 0.000458787, Final residual = 4.44102e-05, No Iterations 14

Time = 560

smoothSolver:  Solving for Ux, Initial residual = 4.18297e-07, Final residual = 3.74323e-08, No Iterations 3
smoothSolver:  Solving for Uy, Initial residual = 4.22918e-07, Final residual = 2.9098e-08, No Iterations 4
GAMG:  Solving for p, Initial residual = 9.90202e-07, Final residual = 8.65049e-08, No Iterations 2
time step continuity errors : sum local = 3.52769e-07, global = -2.0348e-08, cumulative = 0.0396134
smoothSolver:  Solving for omega, Initial residual = 3.48139e-08, Final residual = 4.3876e-09, No Iterations 2
smoothSolver:  Solving for k, Initial residual = 3.18348e-07, Final residual = 2.15556e-08, No Iterations 3
ExecutionTime = 6.35 s  ClockTime = 6 s


SIMPLE solution converged in 560 iterations

scalarTransport execute: age
smoothSolver:  Solving for age, Initial residual = 0.000457829, Final residual = 4.43182e-05, No Iterations 14

End

