/*---------------------------------------------------------------------------*\
| =========                 |                                                 |
| \\      /  F ield         | OpenFOAM: The Open Source CFD Toolbox           |
|  \\    /   O peration     | Version:  v2012                                 |
|   \\  /    A nd           | Website:  www.openfoam.com                      |
|    \\/     M anipulation  |                                                 |
\*---------------------------------------------------------------------------*/
Build  : _7bdb509494-20201222 OPENFOAM=2012
Arch   : "LSB;label=32;scalar=64"
Exec   : simpleFoam
Date   : Feb 23 2023
Time   : 22:53:59
Host   : johnsDesktop
PID    : 17076
I/O    : uncollated
Case   : /home/john/of_runs/cases/dbl_0_46_6-00380_9
nProcs : 1
trapFpe: Floating point exception trapping enabled (FOAM_SIGFPE).
fileModificationChecking : Monitoring run-time modified files using timeStampMaster (fileModificationSkew 5, maxFileModificationPolls 20)
allowSystemOperations : Allowing user-supplied system call operations

// * * * * * * * * * * * * * * * * * * * * * * * * * * * * * * * * * * * * * //
Create time

Create mesh for time = 0


SIMPLE: convergence criteria
    field p	 tolerance 1e-06
    field U	 tolerance 1e-06
    field "(k|epsilon|omega|f|v2|age)"	 tolerance 1e-05

Reading field p

Reading field U

Reading/calculating face flux field phi

Selecting incompressible transport model Newtonian
Selecting turbulence model type RAS
Selecting RAS turbulence model kOmegaSST
Selecting patchDistMethod meshWave
RAS
{
    RASModel        kOmegaSST;
    turbulence      on;
    printCoeffs     on;
    alphaK1         0.85;
    alphaK2         1;
    alphaOmega1     0.5;
    alphaOmega2     0.856;
    gamma1          0.555556;
    gamma2          0.44;
    beta1           0.075;
    beta2           0.0828;
    betaStar        0.09;
    a1              0.31;
    b1              1;
    c1              10;
    F3              false;
    decayControl    false;
    kInf            0;
    omegaInf        0;
}

No MRF models present

No finite volume options present

Starting time loop

Selecting finite volume options type scalarSemiImplicitSource
    Source: unitySource
    - selecting all cells
    - selected 6532 cell(s) with volume 0.03154
Time = 1

smoothSolver:  Solving for Ux, Initial residual = 0, Final residual = 0, No Iterations 0
smoothSolver:  Solving for Uy, Initial residual = 1, Final residual = 0.070191, No Iterations 2
GAMG:  Solving for p, Initial residual = 1, Final residual = 0.0835973, No Iterations 6
time step continuity errors : sum local = 0.00530103, global = -0.000786951, cumulative = -0.000786951
smoothSolver:  Solving for omega, Initial residual = 0.25713, Final residual = 0.0121015, No Iterations 3
smoothSolver:  Solving for k, Initial residual = 1, Final residual = 0.078925, No Iterations 3
ExecutionTime = 0.05 s  ClockTime = 0 s

scalarTransport execute: age
smoothSolver:  Solving for age, Initial residual = 1, Final residual = 0.0899158, No Iterations 6

Time = 2

smoothSolver:  Solving for Ux, Initial residual = 0.562456, Final residual = 0.0476963, No Iterations 6
smoothSolver:  Solving for Uy, Initial residual = 0.280034, Final residual = 0.0192638, No Iterations 6
GAMG:  Solving for p, Initial residual = 0.052134, Final residual = 0.00438268, No Iterations 3
time step continuity errors : sum local = 0.0602846, global = 0.0045944, cumulative = 0.00380745
smoothSolver:  Solving for omega, Initial residual = 0.258655, Final residual = 0.0237123, No Iterations 3
smoothSolver:  Solving for k, Initial residual = 0.597084, Final residual = 0.0545893, No Iterations 4
ExecutionTime = 0.07 s  ClockTime = 0 s

scalarTransport execute: age
smoothSolver:  Solving for age, Initial residual = 0.60417, Final residual = 0.0559554, No Iterations 8

Time = 3

smoothSolver:  Solving for Ux, Initial residual = 0.193667, Final residual = 0.018307, No Iterations 5
smoothSolver:  Solving for Uy, Initial residual = 0.105629, Final residual = 0.00927367, No Iterations 5
GAMG:  Solving for p, Initial residual = 0.0546471, Final residual = 0.00349421, No Iterations 3
time step continuity errors : sum local = 0.0200888, global = 0.00313076, cumulative = 0.0069382
smoothSolver:  Solving for omega, Initial residual = 0.254239, Final residual = 0.0239869, No Iterations 4
smoothSolver:  Solving for k, Initial residual = 0.501613, Final residual = 0.0370384, No Iterations 5
ExecutionTime = 0.08 s  ClockTime = 0 s

scalarTransport execute: age
smoothSolver:  Solving for age, Initial residual = 0.408612, Final residual = 0.0360025, No Iterations 9

Time = 4

smoothSolver:  Solving for Ux, Initial residual = 0.0978854, Final residual = 0.0068972, No Iterations 5
smoothSolver:  Solving for Uy, Initial residual = 0.0512309, Final residual = 0.00503538, No Iterations 4
GAMG:  Solving for p, Initial residual = 0.0763552, Final residual = 0.00312197, No Iterations 3
time step continuity errors : sum local = 0.0101285, global = 0.00062453, cumulative = 0.00756273
smoothSolver:  Solving for omega, Initial residual = 0.143484, Final residual = 0.00966483, No Iterations 5
smoothSolver:  Solving for k, Initial residual = 0.425003, Final residual = 0.0354138, No Iterations 5
ExecutionTime = 0.09 s  ClockTime = 0 s

scalarTransport execute: age
smoothSolver:  Solving for age, Initial residual = 0.298966, Final residual = 0.0281835, No Iterations 8

Time = 5

smoothSolver:  Solving for Ux, Initial residual = 0.0598717, Final residual = 0.00503116, No Iterations 5
smoothSolver:  Solving for Uy, Initial residual = 0.0327073, Final residual = 0.00229202, No Iterations 5
GAMG:  Solving for p, Initial residual = 0.0776063, Final residual = 0.00325211, No Iterations 2
time step continuity errors : sum local = 0.00855733, global = -0.000391685, cumulative = 0.00717105
smoothSolver:  Solving for omega, Initial residual = 0.0996721, Final residual = 0.00736134, No Iterations 5
smoothSolver:  Solving for k, Initial residual = 0.330139, Final residual = 0.0297556, No Iterations 5
ExecutionTime = 0.11 s  ClockTime = 0 s

scalarTransport execute: age
smoothSolver:  Solving for age, Initial residual = 0.229833, Final residual = 0.0203633, No Iterations 9

Time = 6

smoothSolver:  Solving for Ux, Initial residual = 0.0418786, Final residual = 0.00276407, No Iterations 6
smoothSolver:  Solving for Uy, Initial residual = 0.0246707, Final residual = 0.00198136, No Iterations 5
GAMG:  Solving for p, Initial residual = 0.0627326, Final residual = 0.00286125, No Iterations 2
time step continuity errors : sum local = 0.00762801, global = -0.00110019, cumulative = 0.00607085
smoothSolver:  Solving for omega, Initial residual = 0.0780344, Final residual = 0.00617687, No Iterations 5
smoothSolver:  Solving for k, Initial residual = 0.265088, Final residual = 0.0253744, No Iterations 5
ExecutionTime = 0.12 s  ClockTime = 0 s

scalarTransport execute: age
smoothSolver:  Solving for age, Initial residual = 0.179583, Final residual = 0.0154077, No Iterations 10

Time = 7

smoothSolver:  Solving for Ux, Initial residual = 0.0349368, Final residual = 0.0023077, No Iterations 6
smoothSolver:  Solving for Uy, Initial residual = 0.0208409, Final residual = 0.00177817, No Iterations 5
GAMG:  Solving for p, Initial residual = 0.0507065, Final residual = 0.00339066, No Iterations 2
time step continuity errors : sum local = 0.00921212, global = -0.00127739, cumulative = 0.00479347
smoothSolver:  Solving for omega, Initial residual = 0.0597195, Final residual = 0.00506725, No Iterations 5
smoothSolver:  Solving for k, Initial residual = 0.220088, Final residual = 0.0219691, No Iterations 5
ExecutionTime = 0.13 s  ClockTime = 0 s

scalarTransport execute: age
smoothSolver:  Solving for age, Initial residual = 0.14503, Final residual = 0.0137702, No Iterations 10

Time = 8

smoothSolver:  Solving for Ux, Initial residual = 0.0295045, Final residual = 0.00280361, No Iterations 5
smoothSolver:  Solving for Uy, Initial residual = 0.0185026, Final residual = 0.00163636, No Iterations 5
GAMG:  Solving for p, Initial residual = 0.0404478, Final residual = 0.00316203, No Iterations 2
time step continuity errors : sum local = 0.00898393, global = -0.000931045, cumulative = 0.00386242
smoothSolver:  Solving for omega, Initial residual = 0.0479064, Final residual = 0.00422016, No Iterations 5
smoothSolver:  Solving for k, Initial residual = 0.187599, Final residual = 0.012297, No Iterations 6
ExecutionTime = 0.15 s  ClockTime = 0 s

scalarTransport execute: age
smoothSolver:  Solving for age, Initial residual = 0.122587, Final residual = 0.0106762, No Iterations 11

Time = 9

smoothSolver:  Solving for Ux, Initial residual = 0.0275962, Final residual = 0.00265272, No Iterations 5
smoothSolver:  Solving for Uy, Initial residual = 0.0171587, Final residual = 0.00148676, No Iterations 5
GAMG:  Solving for p, Initial residual = 0.0314066, Final residual = 0.001038, No Iterations 2
time step continuity errors : sum local = 0.00314037, global = -0.000770111, cumulative = 0.00309231
smoothSolver:  Solving for omega, Initial residual = 0.0399394, Final residual = 0.00361958, No Iterations 5
smoothSolver:  Solving for k, Initial residual = 0.163253, Final residual = 0.0110296, No Iterations 6
ExecutionTime = 0.16 s  ClockTime = 0 s

scalarTransport execute: age
smoothSolver:  Solving for age, Initial residual = 0.106403, Final residual = 0.00944012, No Iterations 11

Time = 10

smoothSolver:  Solving for Ux, Initial residual = 0.0245709, Final residual = 0.00244051, No Iterations 5
smoothSolver:  Solving for Uy, Initial residual = 0.0157469, Final residual = 0.00144354, No Iterations 5
GAMG:  Solving for p, Initial residual = 0.0264945, Final residual = 0.000870163, No Iterations 2
time step continuity errors : sum local = 0.00267111, global = -0.000605239, cumulative = 0.00248707
smoothSolver:  Solving for omega, Initial residual = 0.0335704, Final residual = 0.00312548, No Iterations 5
smoothSolver:  Solving for k, Initial residual = 0.144197, Final residual = 0.00998734, No Iterations 6
ExecutionTime = 0.17 s  ClockTime = 0 s

scalarTransport execute: age
smoothSolver:  Solving for age, Initial residual = 0.092678, Final residual = 0.00844062, No Iterations 11

Time = 11

smoothSolver:  Solving for Ux, Initial residual = 0.023113, Final residual = 0.00153414, No Iterations 6
smoothSolver:  Solving for Uy, Initial residual = 0.014956, Final residual = 0.00140389, No Iterations 5
GAMG:  Solving for p, Initial residual = 0.0237549, Final residual = 0.000869802, No Iterations 2
time step continuity errors : sum local = 0.00270457, global = -0.000433753, cumulative = 0.00205332
smoothSolver:  Solving for omega, Initial residual = 0.028504, Final residual = 0.00271584, No Iterations 5
smoothSolver:  Solving for k, Initial residual = 0.128988, Final residual = 0.00911673, No Iterations 6
ExecutionTime = 0.19 s  ClockTime = 0 s

scalarTransport execute: age
smoothSolver:  Solving for age, Initial residual = 0.0813659, Final residual = 0.00762669, No Iterations 11

Time = 12

smoothSolver:  Solving for Ux, Initial residual = 0.0218215, Final residual = 0.00146334, No Iterations 6
smoothSolver:  Solving for Uy, Initial residual = 0.0143482, Final residual = 0.00137563, No Iterations 5
GAMG:  Solving for p, Initial residual = 0.0218574, Final residual = 0.000869858, No Iterations 2
time step continuity errors : sum local = 0.00272998, global = -0.000263068, cumulative = 0.00179025
smoothSolver:  Solving for omega, Initial residual = 0.0245228, Final residual = 0.00237825, No Iterations 5
smoothSolver:  Solving for k, Initial residual = 0.116612, Final residual = 0.00838181, No Iterations 6
ExecutionTime = 0.19 s  ClockTime = 0 s

scalarTransport execute: age
smoothSolver:  Solving for age, Initial residual = 0.0718588, Final residual = 0.00699688, No Iterations 11

Time = 13

smoothSolver:  Solving for Ux, Initial residual = 0.0206096, Final residual = 0.00139155, No Iterations 6
smoothSolver:  Solving for Uy, Initial residual = 0.0138241, Final residual = 0.00135108, No Iterations 5
GAMG:  Solving for p, Initial residual = 0.0206333, Final residual = 0.000856996, No Iterations 2
time step continuity errors : sum local = 0.00269604, global = -9.81943e-05, cumulative = 0.00169206
smoothSolver:  Solving for omega, Initial residual = 0.0213041, Final residual = 0.00209648, No Iterations 5
smoothSolver:  Solving for k, Initial residual = 0.106345, Final residual = 0.00775215, No Iterations 6
ExecutionTime = 0.2 s  ClockTime = 0 s

scalarTransport execute: age
smoothSolver:  Solving for age, Initial residual = 0.0628648, Final residual = 0.00540469, No Iterations 12

Time = 14

smoothSolver:  Solving for Ux, Initial residual = 0.0194898, Final residual = 0.0013191, No Iterations 6
smoothSolver:  Solving for Uy, Initial residual = 0.0134404, Final residual = 0.00132959, No Iterations 5
GAMG:  Solving for p, Initial residual = 0.0195818, Final residual = 0.000834321, No Iterations 2
time step continuity errors : sum local = 0.00262723, global = 5.92495e-05, cumulative = 0.00175131
smoothSolver:  Solving for omega, Initial residual = 0.0186855, Final residual = 0.00185983, No Iterations 5
smoothSolver:  Solving for k, Initial residual = 0.0977019, Final residual = 0.00720715, No Iterations 6
ExecutionTime = 0.21 s  ClockTime = 0 s

scalarTransport execute: age
smoothSolver:  Solving for age, Initial residual = 0.0543898, Final residual = 0.00483349, No Iterations 12

Time = 15

smoothSolver:  Solving for Ux, Initial residual = 0.0184444, Final residual = 0.00124596, No Iterations 6
smoothSolver:  Solving for Uy, Initial residual = 0.0131253, Final residual = 0.00131073, No Iterations 5
GAMG:  Solving for p, Initial residual = 0.0186912, Final residual = 0.000807906, No Iterations 2
time step continuity errors : sum local = 0.0025409, global = 0.000195282, cumulative = 0.00194659
smoothSolver:  Solving for omega, Initial residual = 0.0165185, Final residual = 0.00106165, No Iterations 6
smoothSolver:  Solving for k, Initial residual = 0.0901279, Final residual = 0.006718, No Iterations 6
ExecutionTime = 0.23 s  ClockTime = 0 s

scalarTransport execute: age
smoothSolver:  Solving for age, Initial residual = 0.0471624, Final residual = 0.00430248, No Iterations 12

Time = 16

smoothSolver:  Solving for Ux, Initial residual = 0.0174129, Final residual = 0.00117196, No Iterations 6
smoothSolver:  Solving for Uy, Initial residual = 0.0128963, Final residual = 0.000844456, No Iterations 6
GAMG:  Solving for p, Initial residual = 0.0179991, Final residual = 0.000789322, No Iterations 2
time step continuity errors : sum local = 0.00246927, global = 0.000308674, cumulative = 0.00225526
smoothSolver:  Solving for omega, Initial residual = 0.014591, Final residual = 0.000947086, No Iterations 6
smoothSolver:  Solving for k, Initial residual = 0.0834986, Final residual = 0.00628215, No Iterations 6
ExecutionTime = 0.24 s  ClockTime = 0 s

scalarTransport execute: age
smoothSolver:  Solving for age, Initial residual = 0.0412457, Final residual = 0.00381672, No Iterations 12

Time = 17

smoothSolver:  Solving for Ux, Initial residual = 0.0165214, Final residual = 0.00110861, No Iterations 6
smoothSolver:  Solving for Uy, Initial residual = 0.0126394, Final residual = 0.000828324, No Iterations 6
GAMG:  Solving for p, Initial residual = 0.0173759, Final residual = 0.000806698, No Iterations 2
time step continuity errors : sum local = 0.0025026, global = 0.000384421, cumulative = 0.00263968
smoothSolver:  Solving for omega, Initial residual = 0.0129907, Final residual = 0.000849723, No Iterations 6
smoothSolver:  Solving for k, Initial residual = 0.0777753, Final residual = 0.00589755, No Iterations 6
ExecutionTime = 0.25 s  ClockTime = 0 s

scalarTransport execute: age
smoothSolver:  Solving for age, Initial residual = 0.0362872, Final residual = 0.00338778, No Iterations 12

Time = 18

smoothSolver:  Solving for Ux, Initial residual = 0.0156482, Final residual = 0.00104785, No Iterations 6
smoothSolver:  Solving for Uy, Initial residual = 0.0124378, Final residual = 0.000814118, No Iterations 6
GAMG:  Solving for p, Initial residual = 0.0168448, Final residual = 0.000818245, No Iterations 2
time step continuity errors : sum local = 0.00251126, global = 0.000416747, cumulative = 0.00305643
smoothSolver:  Solving for omega, Initial residual = 0.0116518, Final residual = 0.000766509, No Iterations 6
smoothSolver:  Solving for k, Initial residual = 0.0727822, Final residual = 0.00555599, No Iterations 6
ExecutionTime = 0.27 s  ClockTime = 0 s

scalarTransport execute: age
smoothSolver:  Solving for age, Initial residual = 0.032181, Final residual = 0.00300698, No Iterations 12

Time = 19

smoothSolver:  Solving for Ux, Initial residual = 0.014832, Final residual = 0.000991691, No Iterations 6
smoothSolver:  Solving for Uy, Initial residual = 0.0122435, Final residual = 0.000800782, No Iterations 6
GAMG:  Solving for p, Initial residual = 0.0163604, Final residual = 0.000810601, No Iterations 2
time step continuity errors : sum local = 0.00245654, global = 0.000427539, cumulative = 0.00348397
smoothSolver:  Solving for omega, Initial residual = 0.0105164, Final residual = 0.000694654, No Iterations 6
smoothSolver:  Solving for k, Initial residual = 0.0683726, Final residual = 0.00524943, No Iterations 6
ExecutionTime = 0.28 s  ClockTime = 0 s

scalarTransport execute: age
smoothSolver:  Solving for age, Initial residual = 0.0286943, Final residual = 0.00267235, No Iterations 12

Time = 20

smoothSolver:  Solving for Ux, Initial residual = 0.0140746, Final residual = 0.000940842, No Iterations 6
smoothSolver:  Solving for Uy, Initial residual = 0.0120251, Final residual = 0.000786859, No Iterations 6
GAMG:  Solving for p, Initial residual = 0.0158796, Final residual = 0.000781597, No Iterations 2
time step continuity errors : sum local = 0.00234023, global = 0.00042187, cumulative = 0.00390584
smoothSolver:  Solving for omega, Initial residual = 0.00953945, Final residual = 0.000632197, No Iterations 6
smoothSolver:  Solving for k, Initial residual = 0.0644444, Final residual = 0.00497257, No Iterations 6
ExecutionTime = 0.31 s  ClockTime = 0 s

scalarTransport execute: age
smoothSolver:  Solving for age, Initial residual = 0.0256109, Final residual = 0.00237355, No Iterations 12

Time = 21

smoothSolver:  Solving for Ux, Initial residual = 0.0133865, Final residual = 0.000894273, No Iterations 6
smoothSolver:  Solving for Uy, Initial residual = 0.0117992, Final residual = 0.000772924, No Iterations 6
GAMG:  Solving for p, Initial residual = 0.0153238, Final residual = 0.000745195, No Iterations 2
time step continuity errors : sum local = 0.00220561, global = 0.000405661, cumulative = 0.0043115
smoothSolver:  Solving for omega, Initial residual = 0.00869507, Final residual = 0.000577649, No Iterations 6
smoothSolver:  Solving for k, Initial residual = 0.0609209, Final residual = 0.00472093, No Iterations 6
ExecutionTime = 0.32 s  ClockTime = 0 s

scalarTransport execute: age
smoothSolver:  Solving for age, Initial residual = 0.0228958, Final residual = 0.00210205, No Iterations 12

Time = 22

smoothSolver:  Solving for Ux, Initial residual = 0.0127687, Final residual = 0.000851932, No Iterations 6
smoothSolver:  Solving for Uy, Initial residual = 0.0115618, Final residual = 0.000758663, No Iterations 6
GAMG:  Solving for p, Initial residual = 0.0147125, Final residual = 0.000710484, No Iterations 2
time step continuity errors : sum local = 0.00208099, global = 0.000386234, cumulative = 0.00469773
smoothSolver:  Solving for omega, Initial residual = 0.00796046, Final residual = 0.000529666, No Iterations 6
smoothSolver:  Solving for k, Initial residual = 0.0577407, Final residual = 0.00449127, No Iterations 6
ExecutionTime = 0.33 s  ClockTime = 0 s

scalarTransport execute: age
smoothSolver:  Solving for age, Initial residual = 0.0205197, Final residual = 0.00185152, No Iterations 12

Time = 23

smoothSolver:  Solving for Ux, Initial residual = 0.0122041, Final residual = 0.000812758, No Iterations 6
smoothSolver:  Solving for Uy, Initial residual = 0.0113174, Final residual = 0.00074437, No Iterations 6
GAMG:  Solving for p, Initial residual = 0.0139956, Final residual = 0.000681993, No Iterations 2
time step continuity errors : sum local = 0.00197711, global = 0.000367369, cumulative = 0.0050651
smoothSolver:  Solving for omega, Initial residual = 0.00730253, Final residual = 0.000486953, No Iterations 6
smoothSolver:  Solving for k, Initial residual = 0.0548476, Final residual = 0.00428017, No Iterations 6
ExecutionTime = 0.34 s  ClockTime = 0 s

scalarTransport execute: age
smoothSolver:  Solving for age, Initial residual = 0.0185591, Final residual = 0.00161466, No Iterations 12

Time = 24

smoothSolver:  Solving for Ux, Initial residual = 0.0116791, Final residual = 0.000776992, No Iterations 6
smoothSolver:  Solving for Uy, Initial residual = 0.0110628, Final residual = 0.000729487, No Iterations 6
GAMG:  Solving for p, Initial residual = 0.0132625, Final residual = 0.000659018, No Iterations 2
time step continuity errors : sum local = 0.00189124, global = 0.000350356, cumulative = 0.00541546
smoothSolver:  Solving for omega, Initial residual = 0.0067119, Final residual = 0.000448669, No Iterations 6
smoothSolver:  Solving for k, Initial residual = 0.0522086, Final residual = 0.00408575, No Iterations 6
ExecutionTime = 0.36 s  ClockTime = 0 s

scalarTransport execute: age
smoothSolver:  Solving for age, Initial residual = 0.0168821, Final residual = 0.00166245, No Iterations 11

Time = 25

smoothSolver:  Solving for Ux, Initial residual = 0.0111983, Final residual = 0.000745528, No Iterations 6
smoothSolver:  Solving for Uy, Initial residual = 0.0108052, Final residual = 0.000713823, No Iterations 6
GAMG:  Solving for p, Initial residual = 0.012533, Final residual = 0.000633648, No Iterations 2
time step continuity errors : sum local = 0.00180066, global = 0.000335013, cumulative = 0.00575047
smoothSolver:  Solving for omega, Initial residual = 0.00620838, Final residual = 0.00041492, No Iterations 6
smoothSolver:  Solving for k, Initial residual = 0.0497789, Final residual = 0.00390502, No Iterations 6
ExecutionTime = 0.37 s  ClockTime = 0 s

scalarTransport execute: age
smoothSolver:  Solving for age, Initial residual = 0.0153783, Final residual = 0.00144191, No Iterations 11

Time = 26

smoothSolver:  Solving for Ux, Initial residual = 0.0107672, Final residual = 0.000717698, No Iterations 6
smoothSolver:  Solving for Uy, Initial residual = 0.0105457, Final residual = 0.000696575, No Iterations 6
GAMG:  Solving for p, Initial residual = 0.0119134, Final residual = 0.000607187, No Iterations 2
time step continuity errors : sum local = 0.00170929, global = 0.000321422, cumulative = 0.00607189
smoothSolver:  Solving for omega, Initial residual = 0.00576053, Final residual = 0.000384804, No Iterations 6
smoothSolver:  Solving for k, Initial residual = 0.0475341, Final residual = 0.00373662, No Iterations 6
ExecutionTime = 0.38 s  ClockTime = 0 s

scalarTransport execute: age
smoothSolver:  Solving for age, Initial residual = 0.0141153, Final residual = 0.00125406, No Iterations 11

Time = 27

smoothSolver:  Solving for Ux, Initial residual = 0.0103797, Final residual = 0.000693653, No Iterations 6
smoothSolver:  Solving for Uy, Initial residual = 0.0102848, Final residual = 0.000677927, No Iterations 6
GAMG:  Solving for p, Initial residual = 0.0116624, Final residual = 0.000581499, No Iterations 2
time step continuity errors : sum local = 0.00162288, global = 0.000309969, cumulative = 0.00638186
smoothSolver:  Solving for omega, Initial residual = 0.00536031, Final residual = 0.000357749, No Iterations 6
smoothSolver:  Solving for k, Initial residual = 0.0454396, Final residual = 0.00357829, No Iterations 6
ExecutionTime = 0.4 s  ClockTime = 0 s

scalarTransport execute: age
smoothSolver:  Solving for age, Initial residual = 0.0130401, Final residual = 0.00110743, No Iterations 11

Time = 28

smoothSolver:  Solving for Ux, Initial residual = 0.0100348, Final residual = 0.000672973, No Iterations 6
smoothSolver:  Solving for Uy, Initial residual = 0.0100088, Final residual = 0.000656722, No Iterations 6
GAMG:  Solving for p, Initial residual = 0.0115923, Final residual = 0.000558603, No Iterations 2
time step continuity errors : sum local = 0.00154735, global = 0.00030091, cumulative = 0.00668277
smoothSolver:  Solving for omega, Initial residual = 0.00500534, Final residual = 0.000333447, No Iterations 6
smoothSolver:  Solving for k, Initial residual = 0.0434822, Final residual = 0.00342938, No Iterations 6
ExecutionTime = 0.41 s  ClockTime = 0 s

scalarTransport execute: age
smoothSolver:  Solving for age, Initial residual = 0.0121752, Final residual = 0.00117749, No Iterations 10

Time = 29

smoothSolver:  Solving for Ux, Initial residual = 0.00975199, Final residual = 0.000655414, No Iterations 6
smoothSolver:  Solving for Uy, Initial residual = 0.0097229, Final residual = 0.000634066, No Iterations 6
GAMG:  Solving for p, Initial residual = 0.0116889, Final residual = 0.000545347, No Iterations 2
time step continuity errors : sum local = 0.0015015, global = 0.00029409, cumulative = 0.00697686
smoothSolver:  Solving for omega, Initial residual = 0.00468946, Final residual = 0.000311491, No Iterations 6
smoothSolver:  Solving for k, Initial residual = 0.0416474, Final residual = 0.00328901, No Iterations 6
ExecutionTime = 0.42 s  ClockTime = 0 s

scalarTransport execute: age
smoothSolver:  Solving for age, Initial residual = 0.0114814, Final residual = 0.00109081, No Iterations 10

Time = 30

smoothSolver:  Solving for Ux, Initial residual = 0.0095456, Final residual = 0.000641166, No Iterations 6
smoothSolver:  Solving for Uy, Initial residual = 0.00941038, Final residual = 0.000938921, No Iterations 5
GAMG:  Solving for p, Initial residual = 0.0116598, Final residual = 0.000534847, No Iterations 2
time step continuity errors : sum local = 0.0014616, global = 0.000279403, cumulative = 0.00725627
smoothSolver:  Solving for omega, Initial residual = 0.00440482, Final residual = 0.000291588, No Iterations 6
smoothSolver:  Solving for k, Initial residual = 0.0399171, Final residual = 0.00315608, No Iterations 6
ExecutionTime = 0.44 s  ClockTime = 0 s

scalarTransport execute: age
smoothSolver:  Solving for age, Initial residual = 0.0108851, Final residual = 0.00102583, No Iterations 10

Time = 31

smoothSolver:  Solving for Ux, Initial residual = 0.00935467, Final residual = 0.000627268, No Iterations 6
smoothSolver:  Solving for Uy, Initial residual = 0.00914321, Final residual = 0.000908276, No Iterations 5
GAMG:  Solving for p, Initial residual = 0.0114791, Final residual = 0.000535823, No Iterations 2
time step continuity errors : sum local = 0.00145345, global = 0.00026494, cumulative = 0.00752121
smoothSolver:  Solving for omega, Initial residual = 0.00414674, Final residual = 0.000273488, No Iterations 6
smoothSolver:  Solving for k, Initial residual = 0.038279, Final residual = 0.0030299, No Iterations 6
ExecutionTime = 0.44 s  ClockTime = 0 s

scalarTransport execute: age
smoothSolver:  Solving for age, Initial residual = 0.0103407, Final residual = 0.000980156, No Iterations 10

Time = 32

smoothSolver:  Solving for Ux, Initial residual = 0.00922672, Final residual = 0.000616656, No Iterations 6
smoothSolver:  Solving for Uy, Initial residual = 0.00882211, Final residual = 0.000872733, No Iterations 5
GAMG:  Solving for p, Initial residual = 0.0112256, Final residual = 0.00053559, No Iterations 2
time step continuity errors : sum local = 0.00144455, global = 0.000253302, cumulative = 0.00777451
smoothSolver:  Solving for omega, Initial residual = 0.00391027, Final residual = 0.000256948, No Iterations 6
smoothSolver:  Solving for k, Initial residual = 0.0367259, Final residual = 0.00291003, No Iterations 6
ExecutionTime = 0.45 s  ClockTime = 0 s

scalarTransport execute: age
smoothSolver:  Solving for age, Initial residual = 0.00992997, Final residual = 0.00095694, No Iterations 10

Time = 33

smoothSolver:  Solving for Ux, Initial residual = 0.00914113, Final residual = 0.000609085, No Iterations 6
smoothSolver:  Solving for Uy, Initial residual = 0.00846286, Final residual = 0.000832927, No Iterations 5
GAMG:  Solving for p, Initial residual = 0.0108491, Final residual = 0.000525063, No Iterations 2
time step continuity errors : sum local = 0.00140935, global = 0.000242803, cumulative = 0.00801731
smoothSolver:  Solving for omega, Initial residual = 0.00369499, Final residual = 0.000241802, No Iterations 6
smoothSolver:  Solving for k, Initial residual = 0.0352502, Final residual = 0.00279593, No Iterations 6
ExecutionTime = 0.48 s  ClockTime = 0 s

scalarTransport execute: age
smoothSolver:  Solving for age, Initial residual = 0.00957063, Final residual = 0.000951424, No Iterations 10

Time = 34

smoothSolver:  Solving for Ux, Initial residual = 0.00908895, Final residual = 0.000604395, No Iterations 6
smoothSolver:  Solving for Uy, Initial residual = 0.00807175, Final residual = 0.000790929, No Iterations 5
GAMG:  Solving for p, Initial residual = 0.0104996, Final residual = 0.000507123, No Iterations 2
time step continuity errors : sum local = 0.00135527, global = 0.0002336, cumulative = 0.00825091
smoothSolver:  Solving for omega, Initial residual = 0.00350971, Final residual = 0.000227659, No Iterations 6
smoothSolver:  Solving for k, Initial residual = 0.0338503, Final residual = 0.00268742, No Iterations 6
ExecutionTime = 0.49 s  ClockTime = 0 s

scalarTransport execute: age
smoothSolver:  Solving for age, Initial residual = 0.00933944, Final residual = 0.000815747, No Iterations 11

Time = 35

smoothSolver:  Solving for Ux, Initial residual = 0.00904997, Final residual = 0.000601606, No Iterations 6
smoothSolver:  Solving for Uy, Initial residual = 0.00765768, Final residual = 0.000748499, No Iterations 5
GAMG:  Solving for p, Initial residual = 0.0100523, Final residual = 0.000484563, No Iterations 2
time step continuity errors : sum local = 0.00129008, global = 0.000225585, cumulative = 0.00847649
smoothSolver:  Solving for omega, Initial residual = 0.00332745, Final residual = 0.000332156, No Iterations 5
smoothSolver:  Solving for k, Initial residual = 0.0325424, Final residual = 0.00258601, No Iterations 6
ExecutionTime = 0.5 s  ClockTime = 0 s

scalarTransport execute: age
smoothSolver:  Solving for age, Initial residual = 0.0091875, Final residual = 0.000815475, No Iterations 11

Time = 36

smoothSolver:  Solving for Ux, Initial residual = 0.00903187, Final residual = 0.00060116, No Iterations 6
smoothSolver:  Solving for Uy, Initial residual = 0.00725673, Final residual = 0.000707182, No Iterations 5
GAMG:  Solving for p, Initial residual = 0.00967927, Final residual = 0.000470549, No Iterations 2
time step continuity errors : sum local = 0.00124827, global = 0.000218437, cumulative = 0.00869493
smoothSolver:  Solving for omega, Initial residual = 0.00317683, Final residual = 0.000315419, No Iterations 5
smoothSolver:  Solving for k, Initial residual = 0.031313, Final residual = 0.00249037, No Iterations 6
ExecutionTime = 0.51 s  ClockTime = 0 s

scalarTransport execute: age
smoothSolver:  Solving for age, Initial residual = 0.00901495, Final residual = 0.000812715, No Iterations 11

Time = 37

smoothSolver:  Solving for Ux, Initial residual = 0.00901363, Final residual = 0.000601045, No Iterations 6
smoothSolver:  Solving for Uy, Initial residual = 0.00687788, Final residual = 0.000667752, No Iterations 5
GAMG:  Solving for p, Initial residual = 0.00944953, Final residual = 0.000467518, No Iterations 2
time step continuity errors : sum local = 0.00123481, global = 0.000213052, cumulative = 0.00890798
smoothSolver:  Solving for omega, Initial residual = 0.00303489, Final residual = 0.000299599, No Iterations 5
smoothSolver:  Solving for k, Initial residual = 0.0301371, Final residual = 0.0023989, No Iterations 6
ExecutionTime = 0.53 s  ClockTime = 0 s

scalarTransport execute: age
smoothSolver:  Solving for age, Initial residual = 0.00884654, Final residual = 0.000808035, No Iterations 11

Time = 38

smoothSolver:  Solving for Ux, Initial residual = 0.00900392, Final residual = 0.000600964, No Iterations 6
smoothSolver:  Solving for Uy, Initial residual = 0.00652639, Final residual = 0.00063049, No Iterations 5
GAMG:  Solving for p, Initial residual = 0.00932223, Final residual = 0.000478477, No Iterations 2
time step continuity errors : sum local = 0.00125773, global = 0.000210393, cumulative = 0.00911838
smoothSolver:  Solving for omega, Initial residual = 0.00289855, Final residual = 0.000284636, No Iterations 5
smoothSolver:  Solving for k, Initial residual = 0.0290139, Final residual = 0.00231133, No Iterations 6
ExecutionTime = 0.54 s  ClockTime = 1 s

scalarTransport execute: age
smoothSolver:  Solving for age, Initial residual = 0.00867891, Final residual = 0.000801874, No Iterations 11

Time = 39

smoothSolver:  Solving for Ux, Initial residual = 0.00901667, Final residual = 0.000600832, No Iterations 6
smoothSolver:  Solving for Uy, Initial residual = 0.0061985, Final residual = 0.000595769, No Iterations 5
GAMG:  Solving for p, Initial residual = 0.00924051, Final residual = 0.000502196, No Iterations 2
time step continuity errors : sum local = 0.00131449, global = 0.000210356, cumulative = 0.00932873
smoothSolver:  Solving for omega, Initial residual = 0.00276762, Final residual = 0.00027044, No Iterations 5
smoothSolver:  Solving for k, Initial residual = 0.0279446, Final residual = 0.00222771, No Iterations 6
ExecutionTime = 0.55 s  ClockTime = 1 s

scalarTransport execute: age
smoothSolver:  Solving for age, Initial residual = 0.00849087, Final residual = 0.000795614, No Iterations 11

Time = 40

smoothSolver:  Solving for Ux, Initial residual = 0.00905762, Final residual = 0.000600715, No Iterations 6
smoothSolver:  Solving for Uy, Initial residual = 0.00589103, Final residual = 0.000564031, No Iterations 5
GAMG:  Solving for p, Initial residual = 0.00921774, Final residual = 0.000540842, No Iterations 2
time step continuity errors : sum local = 0.00140987, global = 0.000217979, cumulative = 0.00954671
smoothSolver:  Solving for omega, Initial residual = 0.00264817, Final residual = 0.000256996, No Iterations 5
smoothSolver:  Solving for k, Initial residual = 0.0269281, Final residual = 0.00214779, No Iterations 6
ExecutionTime = 0.57 s  ClockTime = 1 s

scalarTransport execute: age
smoothSolver:  Solving for age, Initial residual = 0.00828845, Final residual = 0.000792361, No Iterations 11

Time = 41

smoothSolver:  Solving for Ux, Initial residual = 0.00910798, Final residual = 0.000601057, No Iterations 6
smoothSolver:  Solving for Uy, Initial residual = 0.00561245, Final residual = 0.000535387, No Iterations 5
GAMG:  Solving for p, Initial residual = 0.00924917, Final residual = 0.000578102, No Iterations 2
time step continuity errors : sum local = 0.00150187, global = 0.000229365, cumulative = 0.00977608
smoothSolver:  Solving for omega, Initial residual = 0.00253794, Final residual = 0.000244097, No Iterations 5
smoothSolver:  Solving for k, Initial residual = 0.0259661, Final residual = 0.00207149, No Iterations 6
ExecutionTime = 0.58 s  ClockTime = 1 s

scalarTransport execute: age
smoothSolver:  Solving for age, Initial residual = 0.00815085, Final residual = 0.000786395, No Iterations 11

Time = 42

smoothSolver:  Solving for Ux, Initial residual = 0.00917804, Final residual = 0.000601874, No Iterations 6
smoothSolver:  Solving for Uy, Initial residual = 0.00537348, Final residual = 0.000510108, No Iterations 5
GAMG:  Solving for p, Initial residual = 0.00938786, Final residual = 0.000615872, No Iterations 2
time step continuity errors : sum local = 0.00159509, global = 0.000241873, cumulative = 0.0100179
smoothSolver:  Solving for omega, Initial residual = 0.00242637, Final residual = 0.000232057, No Iterations 5
smoothSolver:  Solving for k, Initial residual = 0.0250484, Final residual = 0.00199855, No Iterations 6
ExecutionTime = 0.59 s  ClockTime = 1 s

scalarTransport execute: age
smoothSolver:  Solving for age, Initial residual = 0.00802001, Final residual = 0.000780852, No Iterations 11

Time = 43

smoothSolver:  Solving for Ux, Initial residual = 0.00924773, Final residual = 0.000603109, No Iterations 6
smoothSolver:  Solving for Uy, Initial residual = 0.00517108, Final residual = 0.000488494, No Iterations 5
GAMG:  Solving for p, Initial residual = 0.00953062, Final residual = 0.000649399, No Iterations 2
time step continuity errors : sum local = 0.0016779, global = 0.000253798, cumulative = 0.0102717
smoothSolver:  Solving for omega, Initial residual = 0.00231656, Final residual = 0.000220327, No Iterations 5
smoothSolver:  Solving for k, Initial residual = 0.0241735, Final residual = 0.00192881, No Iterations 6
ExecutionTime = 0.61 s  ClockTime = 1 s

scalarTransport execute: age
smoothSolver:  Solving for age, Initial residual = 0.00790875, Final residual = 0.000783324, No Iterations 11

Time = 44

smoothSolver:  Solving for Ux, Initial residual = 0.00931545, Final residual = 0.000605043, No Iterations 6
smoothSolver:  Solving for Uy, Initial residual = 0.0050048, Final residual = 0.000470993, No Iterations 5
GAMG:  Solving for p, Initial residual = 0.0096395, Final residual = 0.000676219, No Iterations 2
time step continuity errors : sum local = 0.00174503, global = 0.000263371, cumulative = 0.0105351
smoothSolver:  Solving for omega, Initial residual = 0.00222635, Final residual = 0.000209295, No Iterations 5
smoothSolver:  Solving for k, Initial residual = 0.0233417, Final residual = 0.00186212, No Iterations 6
ExecutionTime = 0.62 s  ClockTime = 1 s

scalarTransport execute: age
smoothSolver:  Solving for age, Initial residual = 0.00785134, Final residual = 0.000683653, No Iterations 12

Time = 45

smoothSolver:  Solving for Ux, Initial residual = 0.00938992, Final residual = 0.000937314, No Iterations 5
smoothSolver:  Solving for Uy, Initial residual = 0.00487675, Final residual = 0.000457561, No Iterations 5
GAMG:  Solving for p, Initial residual = 0.00963612, Final residual = 0.00068999, No Iterations 2
time step continuity errors : sum local = 0.0017793, global = 0.000269514, cumulative = 0.0108046
smoothSolver:  Solving for omega, Initial residual = 0.00213747, Final residual = 0.000199259, No Iterations 5
smoothSolver:  Solving for k, Initial residual = 0.0225516, Final residual = 0.0017985, No Iterations 6
ExecutionTime = 0.63 s  ClockTime = 1 s

scalarTransport execute: age
smoothSolver:  Solving for age, Initial residual = 0.00776355, Final residual = 0.000696556, No Iterations 12

Time = 46

smoothSolver:  Solving for Ux, Initial residual = 0.00951149, Final residual = 0.000947293, No Iterations 5
smoothSolver:  Solving for Uy, Initial residual = 0.00474224, Final residual = 0.000443767, No Iterations 5
GAMG:  Solving for p, Initial residual = 0.00973667, Final residual = 0.000709125, No Iterations 2
time step continuity errors : sum local = 0.00182828, global = 0.0002725, cumulative = 0.0110771
smoothSolver:  Solving for omega, Initial residual = 0.00205935, Final residual = 0.000189925, No Iterations 5
smoothSolver:  Solving for k, Initial residual = 0.021799, Final residual = 0.00173765, No Iterations 6
ExecutionTime = 0.64 s  ClockTime = 1 s

scalarTransport execute: age
smoothSolver:  Solving for age, Initial residual = 0.00768238, Final residual = 0.000704068, No Iterations 12

Time = 47

smoothSolver:  Solving for Ux, Initial residual = 0.00963945, Final residual = 0.000958268, No Iterations 5
smoothSolver:  Solving for Uy, Initial residual = 0.00467016, Final residual = 0.000435956, No Iterations 5
GAMG:  Solving for p, Initial residual = 0.00982602, Final residual = 0.000733136, No Iterations 2
time step continuity errors : sum local = 0.00189104, global = 0.000273194, cumulative = 0.0113503
smoothSolver:  Solving for omega, Initial residual = 0.00198643, Final residual = 0.000181217, No Iterations 5
smoothSolver:  Solving for k, Initial residual = 0.0210816, Final residual = 0.0016795, No Iterations 6
ExecutionTime = 0.66 s  ClockTime = 1 s

scalarTransport execute: age
smoothSolver:  Solving for age, Initial residual = 0.00765109, Final residual = 0.000708683, No Iterations 12

Time = 48

smoothSolver:  Solving for Ux, Initial residual = 0.00976373, Final residual = 0.000969954, No Iterations 5
smoothSolver:  Solving for Uy, Initial residual = 0.0046472, Final residual = 0.000433637, No Iterations 5
GAMG:  Solving for p, Initial residual = 0.00988774, Final residual = 0.000757072, No Iterations 2
time step continuity errors : sum local = 0.00195473, global = 0.000272616, cumulative = 0.0116229
smoothSolver:  Solving for omega, Initial residual = 0.00191654, Final residual = 0.000173039, No Iterations 5
smoothSolver:  Solving for k, Initial residual = 0.0203953, Final residual = 0.00162387, No Iterations 6
ExecutionTime = 0.67 s  ClockTime = 1 s

scalarTransport execute: age
smoothSolver:  Solving for age, Initial residual = 0.00767586, Final residual = 0.000719608, No Iterations 12

Time = 49

smoothSolver:  Solving for Ux, Initial residual = 0.00987565, Final residual = 0.000982213, No Iterations 5
smoothSolver:  Solving for Uy, Initial residual = 0.00466472, Final residual = 0.000437376, No Iterations 5
GAMG:  Solving for p, Initial residual = 0.00992653, Final residual = 0.000779131, No Iterations 2
time step continuity errors : sum local = 0.00201418, global = 0.000271336, cumulative = 0.0118943
smoothSolver:  Solving for omega, Initial residual = 0.00185878, Final residual = 0.000165424, No Iterations 5
smoothSolver:  Solving for k, Initial residual = 0.0197351, Final residual = 0.00157051, No Iterations 6
ExecutionTime = 0.68 s  ClockTime = 1 s

scalarTransport execute: age
smoothSolver:  Solving for age, Initial residual = 0.0077529, Final residual = 0.000734898, No Iterations 12

Time = 50

smoothSolver:  Solving for Ux, Initial residual = 0.00998547, Final residual = 0.000995281, No Iterations 5
smoothSolver:  Solving for Uy, Initial residual = 0.00471323, Final residual = 0.000446113, No Iterations 5
GAMG:  Solving for p, Initial residual = 0.010019, Final residual = 0.000797655, No Iterations 2
time step continuity errors : sum local = 0.00206455, global = 0.000269981, cumulative = 0.0121643
smoothSolver:  Solving for omega, Initial residual = 0.00180622, Final residual = 0.00015827, No Iterations 5
smoothSolver:  Solving for k, Initial residual = 0.0191035, Final residual = 0.00151934, No Iterations 6
ExecutionTime = 0.7 s  ClockTime = 1 s

scalarTransport execute: age
smoothSolver:  Solving for age, Initial residual = 0.00789054, Final residual = 0.000753146, No Iterations 12

Time = 51

smoothSolver:  Solving for Ux, Initial residual = 0.0100912, Final residual = 0.000655023, No Iterations 6
smoothSolver:  Solving for Uy, Initial residual = 0.00479042, Final residual = 0.000458976, No Iterations 5
GAMG:  Solving for p, Initial residual = 0.0102412, Final residual = 0.000823706, No Iterations 2
time step continuity errors : sum local = 0.00213467, global = 0.000270063, cumulative = 0.0124343
smoothSolver:  Solving for omega, Initial residual = 0.00175816, Final residual = 0.000151586, No Iterations 5
smoothSolver:  Solving for k, Initial residual = 0.0184926, Final residual = 0.00146996, No Iterations 6
ExecutionTime = 0.71 s  ClockTime = 1 s

scalarTransport execute: age
smoothSolver:  Solving for age, Initial residual = 0.00823068, Final residual = 0.000783616, No Iterations 12

Time = 52

smoothSolver:  Solving for Ux, Initial residual = 0.0101658, Final residual = 0.000662059, No Iterations 6
smoothSolver:  Solving for Uy, Initial residual = 0.00494305, Final residual = 0.000480457, No Iterations 5
GAMG:  Solving for p, Initial residual = 0.0105431, Final residual = 0.000833971, No Iterations 2
time step continuity errors : sum local = 0.00216623, global = 0.000270663, cumulative = 0.012705
smoothSolver:  Solving for omega, Initial residual = 0.00171214, Final residual = 0.000145474, No Iterations 5
smoothSolver:  Solving for k, Initial residual = 0.0179089, Final residual = 0.0014227, No Iterations 6
ExecutionTime = 0.72 s  ClockTime = 1 s

scalarTransport execute: age
smoothSolver:  Solving for age, Initial residual = 0.00861966, Final residual = 0.000837468, No Iterations 12

Time = 53

smoothSolver:  Solving for Ux, Initial residual = 0.0102412, Final residual = 0.000670321, No Iterations 6
smoothSolver:  Solving for Uy, Initial residual = 0.00509712, Final residual = 0.000502737, No Iterations 5
GAMG:  Solving for p, Initial residual = 0.0111115, Final residual = 0.000833038, No Iterations 2
time step continuity errors : sum local = 0.00217562, global = 0.000270767, cumulative = 0.0129758
smoothSolver:  Solving for omega, Initial residual = 0.00166697, Final residual = 0.000139871, No Iterations 5
smoothSolver:  Solving for k, Initial residual = 0.0173526, Final residual = 0.00137742, No Iterations 6
ExecutionTime = 0.73 s  ClockTime = 1 s

scalarTransport execute: age
smoothSolver:  Solving for age, Initial residual = 0.00910659, Final residual = 0.000801681, No Iterations 17

Time = 54

smoothSolver:  Solving for Ux, Initial residual = 0.0103336, Final residual = 0.000680326, No Iterations 6
smoothSolver:  Solving for Uy, Initial residual = 0.00524801, Final residual = 0.000342076, No Iterations 6
GAMG:  Solving for p, Initial residual = 0.0121648, Final residual = 0.000822155, No Iterations 2
time step continuity errors : sum local = 0.00216589, global = 0.000272692, cumulative = 0.0132484
smoothSolver:  Solving for omega, Initial residual = 0.00162879, Final residual = 0.000134721, No Iterations 5
smoothSolver:  Solving for k, Initial residual = 0.016823, Final residual = 0.00133385, No Iterations 6
ExecutionTime = 0.75 s  ClockTime = 1 s

scalarTransport execute: age
smoothSolver:  Solving for age, Initial residual = 0.0127383, Final residual = 0.00114643, No Iterations 13

Time = 55

smoothSolver:  Solving for Ux, Initial residual = 0.0105052, Final residual = 0.000692472, No Iterations 6
smoothSolver:  Solving for Uy, Initial residual = 0.00537167, Final residual = 0.000352148, No Iterations 6
GAMG:  Solving for p, Initial residual = 0.0134516, Final residual = 0.000833967, No Iterations 2
time step continuity errors : sum local = 0.00225868, global = 0.000278467, cumulative = 0.0135269
smoothSolver:  Solving for omega, Initial residual = 0.00160442, Final residual = 0.00012957, No Iterations 5
smoothSolver:  Solving for k, Initial residual = 0.016314, Final residual = 0.0012919, No Iterations 6
ExecutionTime = 0.76 s  ClockTime = 1 s

scalarTransport execute: age
smoothSolver:  Solving for age, Initial residual = 0.0127572, Final residual = 0.00126296, No Iterations 12

Time = 56

smoothSolver:  Solving for Ux, Initial residual = 0.0106641, Final residual = 0.000703594, No Iterations 6
smoothSolver:  Solving for Uy, Initial residual = 0.00551824, Final residual = 0.000363196, No Iterations 6
GAMG:  Solving for p, Initial residual = 0.0135488, Final residual = 0.000889419, No Iterations 2
time step continuity errors : sum local = 0.00234897, global = 0.000288456, cumulative = 0.0138154
smoothSolver:  Solving for omega, Initial residual = 0.00153948, Final residual = 0.000124316, No Iterations 5
smoothSolver:  Solving for k, Initial residual = 0.015824, Final residual = 0.0012517, No Iterations 6
ExecutionTime = 0.77 s  ClockTime = 1 s

scalarTransport execute: age
smoothSolver:  Solving for age, Initial residual = 0.0131639, Final residual = 0.00117319, No Iterations 12

Time = 57

smoothSolver:  Solving for Ux, Initial residual = 0.010816, Final residual = 0.000713033, No Iterations 6
smoothSolver:  Solving for Uy, Initial residual = 0.00570926, Final residual = 0.000376598, No Iterations 6
GAMG:  Solving for p, Initial residual = 0.0134188, Final residual = 0.000919254, No Iterations 2
time step continuity errors : sum local = 0.00238465, global = 0.0002975, cumulative = 0.0141129
smoothSolver:  Solving for omega, Initial residual = 0.00151219, Final residual = 0.000118568, No Iterations 5
smoothSolver:  Solving for k, Initial residual = 0.0153453, Final residual = 0.00121323, No Iterations 6
ExecutionTime = 0.79 s  ClockTime = 1 s

scalarTransport execute: age
smoothSolver:  Solving for age, Initial residual = 0.0128198, Final residual = 0.00117078, No Iterations 12

Time = 58

smoothSolver:  Solving for Ux, Initial residual = 0.0109435, Final residual = 0.0007222, No Iterations 6
smoothSolver:  Solving for Uy, Initial residual = 0.00594291, Final residual = 0.000392081, No Iterations 6
GAMG:  Solving for p, Initial residual = 0.0130369, Final residual = 0.000943796, No Iterations 2
time step continuity errors : sum local = 0.00242752, global = 0.000299209, cumulative = 0.0144121
smoothSolver:  Solving for omega, Initial residual = 0.00144921, Final residual = 0.000114242, No Iterations 5
smoothSolver:  Solving for k, Initial residual = 0.0148914, Final residual = 0.00117619, No Iterations 6
ExecutionTime = 0.8 s  ClockTime = 1 s

scalarTransport execute: age
smoothSolver:  Solving for age, Initial residual = 0.0131148, Final residual = 0.00119418, No Iterations 12

Time = 59

smoothSolver:  Solving for Ux, Initial residual = 0.0110845, Final residual = 0.000732526, No Iterations 6
smoothSolver:  Solving for Uy, Initial residual = 0.00614091, Final residual = 0.000406902, No Iterations 6
GAMG:  Solving for p, Initial residual = 0.0130317, Final residual = 0.000980199, No Iterations 2
time step continuity errors : sum local = 0.00250518, global = 0.000298145, cumulative = 0.0147102
smoothSolver:  Solving for omega, Initial residual = 0.00141147, Final residual = 0.000110099, No Iterations 5
smoothSolver:  Solving for k, Initial residual = 0.01446, Final residual = 0.00114057, No Iterations 6
ExecutionTime = 0.81 s  ClockTime = 1 s

scalarTransport execute: age
smoothSolver:  Solving for age, Initial residual = 0.0137587, Final residual = 0.00122972, No Iterations 12

Time = 60

smoothSolver:  Solving for Ux, Initial residual = 0.0111658, Final residual = 0.000741206, No Iterations 6
smoothSolver:  Solving for Uy, Initial residual = 0.00629782, Final residual = 0.000420321, No Iterations 6
GAMG:  Solving for p, Initial residual = 0.0129706, Final residual = 0.00100685, No Iterations 2
time step continuity errors : sum local = 0.00256152, global = 0.000295041, cumulative = 0.0150053
smoothSolver:  Solving for omega, Initial residual = 0.00137421, Final residual = 0.000105989, No Iterations 5
smoothSolver:  Solving for k, Initial residual = 0.0140418, Final residual = 0.00110631, No Iterations 6
ExecutionTime = 0.83 s  ClockTime = 1 s

scalarTransport execute: age
smoothSolver:  Solving for age, Initial residual = 0.014389, Final residual = 0.00123765, No Iterations 12

Time = 61

smoothSolver:  Solving for Ux, Initial residual = 0.0112202, Final residual = 0.000747105, No Iterations 6
smoothSolver:  Solving for Uy, Initial residual = 0.00643654, Final residual = 0.000432631, No Iterations 6
GAMG:  Solving for p, Initial residual = 0.0126794, Final residual = 0.00100604, No Iterations 2
time step continuity errors : sum local = 0.00254829, global = 0.000289681, cumulative = 0.0152949
smoothSolver:  Solving for omega, Initial residual = 0.00132558, Final residual = 0.000102003, No Iterations 5
smoothSolver:  Solving for k, Initial residual = 0.0136359, Final residual = 0.00107335, No Iterations 6
ExecutionTime = 0.84 s  ClockTime = 1 s

scalarTransport execute: age
smoothSolver:  Solving for age, Initial residual = 0.0153004, Final residual = 0.00152075, No Iterations 11

Time = 62

smoothSolver:  Solving for Ux, Initial residual = 0.0112024, Final residual = 0.000749597, No Iterations 6
smoothSolver:  Solving for Uy, Initial residual = 0.00653939, Final residual = 0.00044398, No Iterations 6
GAMG:  Solving for p, Initial residual = 0.0119441, Final residual = 0.000956595, No Iterations 2
time step continuity errors : sum local = 0.00240462, global = 0.000280566, cumulative = 0.0155755
smoothSolver:  Solving for omega, Initial residual = 0.00127106, Final residual = 9.82467e-05, No Iterations 5
smoothSolver:  Solving for k, Initial residual = 0.0132491, Final residual = 0.00104182, No Iterations 6
ExecutionTime = 0.85 s  ClockTime = 1 s

scalarTransport execute: age
smoothSolver:  Solving for age, Initial residual = 0.016225, Final residual = 0.00160289, No Iterations 11

Time = 63

smoothSolver:  Solving for Ux, Initial residual = 0.0111434, Final residual = 0.000750147, No Iterations 6
smoothSolver:  Solving for Uy, Initial residual = 0.00660855, Final residual = 0.000454326, No Iterations 6
GAMG:  Solving for p, Initial residual = 0.0113496, Final residual = 0.000930254, No Iterations 2
time step continuity errors : sum local = 0.002325, global = 0.000274488, cumulative = 0.01585
smoothSolver:  Solving for omega, Initial residual = 0.00123202, Final residual = 9.47029e-05, No Iterations 5
smoothSolver:  Solving for k, Initial residual = 0.0128758, Final residual = 0.00101148, No Iterations 6
ExecutionTime = 0.86 s  ClockTime = 1 s

scalarTransport execute: age
smoothSolver:  Solving for age, Initial residual = 0.0168535, Final residual = 0.00168403, No Iterations 11

Time = 64

smoothSolver:  Solving for Ux, Initial residual = 0.011014, Final residual = 0.000748239, No Iterations 6
smoothSolver:  Solving for Uy, Initial residual = 0.0066599, Final residual = 0.000462868, No Iterations 6
GAMG:  Solving for p, Initial residual = 0.0107663, Final residual = 0.000891453, No Iterations 2
time step continuity errors : sum local = 0.00222255, global = 0.000266887, cumulative = 0.0161169
smoothSolver:  Solving for omega, Initial residual = 0.00119862, Final residual = 9.13908e-05, No Iterations 5
smoothSolver:  Solving for k, Initial residual = 0.012514, Final residual = 0.000982314, No Iterations 6
ExecutionTime = 0.88 s  ClockTime = 1 s

scalarTransport execute: age
smoothSolver:  Solving for age, Initial residual = 0.0174255, Final residual = 0.00172816, No Iterations 11

Time = 65

smoothSolver:  Solving for Ux, Initial residual = 0.0108931, Final residual = 0.000744973, No Iterations 6
smoothSolver:  Solving for Uy, Initial residual = 0.0066984, Final residual = 0.000469963, No Iterations 6
GAMG:  Solving for p, Initial residual = 0.0103061, Final residual = 0.00085199, No Iterations 2
time step continuity errors : sum local = 0.00212027, global = 0.000257873, cumulative = 0.0163748
smoothSolver:  Solving for omega, Initial residual = 0.00116081, Final residual = 8.8212e-05, No Iterations 5
smoothSolver:  Solving for k, Initial residual = 0.0121643, Final residual = 0.000954215, No Iterations 6
ExecutionTime = 0.89 s  ClockTime = 1 s

scalarTransport execute: age
smoothSolver:  Solving for age, Initial residual = 0.0181728, Final residual = 0.00174978, No Iterations 11

Time = 66

smoothSolver:  Solving for Ux, Initial residual = 0.0107937, Final residual = 0.000740754, No Iterations 6
smoothSolver:  Solving for Uy, Initial residual = 0.00671382, Final residual = 0.000475602, No Iterations 6
GAMG:  Solving for p, Initial residual = 0.0100205, Final residual = 0.000811047, No Iterations 2
time step continuity errors : sum local = 0.00201476, global = 0.000246598, cumulative = 0.0166214
smoothSolver:  Solving for omega, Initial residual = 0.00112254, Final residual = 8.51522e-05, No Iterations 5
smoothSolver:  Solving for k, Initial residual = 0.0118252, Final residual = 0.00092711, No Iterations 6
ExecutionTime = 0.9 s  ClockTime = 1 s

scalarTransport execute: age
smoothSolver:  Solving for age, Initial residual = 0.0188098, Final residual = 0.00176466, No Iterations 11

Time = 67

smoothSolver:  Solving for Ux, Initial residual = 0.0107024, Final residual = 0.000736021, No Iterations 6
smoothSolver:  Solving for Uy, Initial residual = 0.00671481, Final residual = 0.000479986, No Iterations 6
GAMG:  Solving for p, Initial residual = 0.00984468, Final residual = 0.000751894, No Iterations 2
time step continuity errors : sum local = 0.0018644, global = 0.000227613, cumulative = 0.016849
smoothSolver:  Solving for omega, Initial residual = 0.00108707, Final residual = 8.22447e-05, No Iterations 5
smoothSolver:  Solving for k, Initial residual = 0.0114964, Final residual = 0.000901004, No Iterations 6
ExecutionTime = 0.92 s  ClockTime = 1 s

scalarTransport execute: age
smoothSolver:  Solving for age, Initial residual = 0.0192462, Final residual = 0.00169514, No Iterations 11

Time = 68

smoothSolver:  Solving for Ux, Initial residual = 0.0106535, Final residual = 0.000732263, No Iterations 6
smoothSolver:  Solving for Uy, Initial residual = 0.00671068, Final residual = 0.000483551, No Iterations 6
GAMG:  Solving for p, Initial residual = 0.00972189, Final residual = 0.00070527, No Iterations 2
time step continuity errors : sum local = 0.00174459, global = 0.000206568, cumulative = 0.0170555
smoothSolver:  Solving for omega, Initial residual = 0.00105313, Final residual = 7.94983e-05, No Iterations 5
smoothSolver:  Solving for k, Initial residual = 0.0111785, Final residual = 0.000875795, No Iterations 6
ExecutionTime = 0.93 s  ClockTime = 1 s

scalarTransport execute: age
smoothSolver:  Solving for age, Initial residual = 0.0197341, Final residual = 0.00179031, No Iterations 11

Time = 69

smoothSolver:  Solving for Ux, Initial residual = 0.0106111, Final residual = 0.000728862, No Iterations 6
smoothSolver:  Solving for Uy, Initial residual = 0.0067011, Final residual = 0.000486459, No Iterations 6
GAMG:  Solving for p, Initial residual = 0.00980407, Final residual = 0.000665674, No Iterations 2
time step continuity errors : sum local = 0.00164326, global = 0.000184725, cumulative = 0.0172403
smoothSolver:  Solving for omega, Initial residual = 0.00102292, Final residual = 7.6902e-05, No Iterations 5
smoothSolver:  Solving for k, Initial residual = 0.0108688, Final residual = 0.00085143, No Iterations 6
ExecutionTime = 0.94 s  ClockTime = 1 s

scalarTransport execute: age
smoothSolver:  Solving for age, Initial residual = 0.0196961, Final residual = 0.00187753, No Iterations 11

Time = 70

smoothSolver:  Solving for Ux, Initial residual = 0.0105799, Final residual = 0.000726594, No Iterations 6
smoothSolver:  Solving for Uy, Initial residual = 0.00669451, Final residual = 0.000488841, No Iterations 6
GAMG:  Solving for p, Initial residual = 0.00988636, Final residual = 0.000634527, No Iterations 2
time step continuity errors : sum local = 0.00156297, global = 0.000162978, cumulative = 0.0174032
smoothSolver:  Solving for omega, Initial residual = 0.000993, Final residual = 7.44485e-05, No Iterations 5
smoothSolver:  Solving for k, Initial residual = 0.0105692, Final residual = 0.000827909, No Iterations 6
ExecutionTime = 0.96 s  ClockTime = 1 s

scalarTransport execute: age
smoothSolver:  Solving for age, Initial residual = 0.0189772, Final residual = 0.00180838, No Iterations 11

Time = 71

smoothSolver:  Solving for Ux, Initial residual = 0.0105446, Final residual = 0.000725193, No Iterations 6
smoothSolver:  Solving for Uy, Initial residual = 0.00668937, Final residual = 0.00049077, No Iterations 6
GAMG:  Solving for p, Initial residual = 0.00997609, Final residual = 0.000606347, No Iterations 2
time step continuity errors : sum local = 0.00148996, global = 0.000142062, cumulative = 0.0175453
smoothSolver:  Solving for omega, Initial residual = 0.000964232, Final residual = 7.2138e-05, No Iterations 5
smoothSolver:  Solving for k, Initial residual = 0.0102816, Final residual = 0.000805221, No Iterations 6
ExecutionTime = 0.97 s  ClockTime = 1 s

scalarTransport execute: age
smoothSolver:  Solving for age, Initial residual = 0.0178278, Final residual = 0.00169895, No Iterations 11

Time = 72

smoothSolver:  Solving for Ux, Initial residual = 0.0105045, Final residual = 0.000723252, No Iterations 6
smoothSolver:  Solving for Uy, Initial residual = 0.00668731, Final residual = 0.000492229, No Iterations 6
GAMG:  Solving for p, Initial residual = 0.0100897, Final residual = 0.000591465, No Iterations 2
time step continuity errors : sum local = 0.00144941, global = 0.000126986, cumulative = 0.0176723
smoothSolver:  Solving for omega, Initial residual = 0.00093317, Final residual = 6.99124e-05, No Iterations 5
smoothSolver:  Solving for k, Initial residual = 0.010006, Final residual = 0.00078332, No Iterations 6
ExecutionTime = 0.98 s  ClockTime = 1 s

scalarTransport execute: age
smoothSolver:  Solving for age, Initial residual = 0.0163623, Final residual = 0.00162404, No Iterations 11

Time = 73

smoothSolver:  Solving for Ux, Initial residual = 0.010439, Final residual = 0.000719123, No Iterations 6
smoothSolver:  Solving for Uy, Initial residual = 0.00668126, Final residual = 0.000493078, No Iterations 6
GAMG:  Solving for p, Initial residual = 0.0100777, Final residual = 0.000576059, No Iterations 2
time step continuity errors : sum local = 0.00140417, global = 0.000113535, cumulative = 0.0177858
smoothSolver:  Solving for omega, Initial residual = 0.000909724, Final residual = 6.78225e-05, No Iterations 5
smoothSolver:  Solving for k, Initial residual = 0.00974146, Final residual = 0.000762141, No Iterations 6
ExecutionTime = 0.99 s  ClockTime = 1 s

scalarTransport execute: age
smoothSolver:  Solving for age, Initial residual = 0.015194, Final residual = 0.00136175, No Iterations 12

Time = 74

smoothSolver:  Solving for Ux, Initial residual = 0.0103532, Final residual = 0.000713952, No Iterations 6
smoothSolver:  Solving for Uy, Initial residual = 0.00667295, Final residual = 0.000493339, No Iterations 6
GAMG:  Solving for p, Initial residual = 0.00992858, Final residual = 0.000564212, No Iterations 2
time step continuity errors : sum local = 0.00136653, global = 0.000103605, cumulative = 0.0178894
smoothSolver:  Solving for omega, Initial residual = 0.000883563, Final residual = 6.58282e-05, No Iterations 5
smoothSolver:  Solving for k, Initial residual = 0.00948687, Final residual = 0.000741638, No Iterations 6
ExecutionTime = 1.01 s  ClockTime = 1 s

scalarTransport execute: age
smoothSolver:  Solving for age, Initial residual = 0.0141232, Final residual = 0.00130286, No Iterations 12

Time = 75

smoothSolver:  Solving for Ux, Initial residual = 0.010252, Final residual = 0.000707753, No Iterations 6
smoothSolver:  Solving for Uy, Initial residual = 0.00667064, Final residual = 0.000493226, No Iterations 6
GAMG:  Solving for p, Initial residual = 0.0097107, Final residual = 0.000557803, No Iterations 2
time step continuity errors : sum local = 0.00134043, global = 9.53103e-05, cumulative = 0.0179847
smoothSolver:  Solving for omega, Initial residual = 0.000858591, Final residual = 6.38307e-05, No Iterations 5
smoothSolver:  Solving for k, Initial residual = 0.00923967, Final residual = 0.00072176, No Iterations 6
ExecutionTime = 1.02 s  ClockTime = 1 s

scalarTransport execute: age
smoothSolver:  Solving for age, Initial residual = 0.0132293, Final residual = 0.00126825, No Iterations 12

Time = 76

smoothSolver:  Solving for Ux, Initial residual = 0.0101437, Final residual = 0.000700282, No Iterations 6
smoothSolver:  Solving for Uy, Initial residual = 0.00666714, Final residual = 0.000492199, No Iterations 6
GAMG:  Solving for p, Initial residual = 0.00946571, Final residual = 0.00055345, No Iterations 2
time step continuity errors : sum local = 0.00131892, global = 8.98688e-05, cumulative = 0.0180746
smoothSolver:  Solving for omega, Initial residual = 0.000834408, Final residual = 6.18353e-05, No Iterations 5
smoothSolver:  Solving for k, Initial residual = 0.00899908, Final residual = 0.000702487, No Iterations 6
ExecutionTime = 1.03 s  ClockTime = 1 s

scalarTransport execute: age
smoothSolver:  Solving for age, Initial residual = 0.012764, Final residual = 0.00126766, No Iterations 12

Time = 77

smoothSolver:  Solving for Ux, Initial residual = 0.0100214, Final residual = 0.000691476, No Iterations 6
smoothSolver:  Solving for Uy, Initial residual = 0.00664477, Final residual = 0.000489785, No Iterations 6
GAMG:  Solving for p, Initial residual = 0.00918548, Final residual = 0.000550022, No Iterations 2
time step continuity errors : sum local = 0.00130145, global = 8.80443e-05, cumulative = 0.0181627
smoothSolver:  Solving for omega, Initial residual = 0.00081231, Final residual = 5.98635e-05, No Iterations 5
smoothSolver:  Solving for k, Initial residual = 0.0087639, Final residual = 0.000683769, No Iterations 6
ExecutionTime = 1.05 s  ClockTime = 1 s

scalarTransport execute: age
smoothSolver:  Solving for age, Initial residual = 0.0124258, Final residual = 0.00112606, No Iterations 13

Time = 78

smoothSolver:  Solving for Ux, Initial residual = 0.00987745, Final residual = 0.000681012, No Iterations 6
smoothSolver:  Solving for Uy, Initial residual = 0.00660571, Final residual = 0.000485756, No Iterations 6
GAMG:  Solving for p, Initial residual = 0.00885937, Final residual = 0.00054262, No Iterations 2
time step continuity errors : sum local = 0.0012754, global = 8.69331e-05, cumulative = 0.0182496
smoothSolver:  Solving for omega, Initial residual = 0.000795661, Final residual = 5.79112e-05, No Iterations 5
smoothSolver:  Solving for k, Initial residual = 0.00853458, Final residual = 0.000665584, No Iterations 6
ExecutionTime = 1.06 s  ClockTime = 1 s

scalarTransport execute: age
smoothSolver:  Solving for age, Initial residual = 0.0121432, Final residual = 0.00115322, No Iterations 13

Time = 79

smoothSolver:  Solving for Ux, Initial residual = 0.00972731, Final residual = 0.000669954, No Iterations 6
smoothSolver:  Solving for Uy, Initial residual = 0.00654803, Final residual = 0.000480228, No Iterations 6
GAMG:  Solving for p, Initial residual = 0.00872216, Final residual = 0.000535116, No Iterations 2
time step continuity errors : sum local = 0.00125053, global = 8.67824e-05, cumulative = 0.0183364
smoothSolver:  Solving for omega, Initial residual = 0.000776948, Final residual = 5.6094e-05, No Iterations 5
smoothSolver:  Solving for k, Initial residual = 0.00831162, Final residual = 0.000647909, No Iterations 6
ExecutionTime = 1.07 s  ClockTime = 1 s

scalarTransport execute: age
smoothSolver:  Solving for age, Initial residual = 0.0118418, Final residual = 0.00103422, No Iterations 14

Time = 80

smoothSolver:  Solving for Ux, Initial residual = 0.00956883, Final residual = 0.00065779, No Iterations 6
smoothSolver:  Solving for Uy, Initial residual = 0.00646873, Final residual = 0.000473305, No Iterations 6
GAMG:  Solving for p, Initial residual = 0.00867779, Final residual = 0.000538186, No Iterations 2
time step continuity errors : sum local = 0.00124971, global = 8.61048e-05, cumulative = 0.0184225
smoothSolver:  Solving for omega, Initial residual = 0.000759652, Final residual = 5.44066e-05, No Iterations 5
smoothSolver:  Solving for k, Initial residual = 0.00809305, Final residual = 0.000630707, No Iterations 6
ExecutionTime = 1.09 s  ClockTime = 1 s

scalarTransport execute: age
smoothSolver:  Solving for age, Initial residual = 0.0115555, Final residual = 0.00105804, No Iterations 14

Time = 81

smoothSolver:  Solving for Ux, Initial residual = 0.00940001, Final residual = 0.000644634, No Iterations 6
smoothSolver:  Solving for Uy, Initial residual = 0.00637058, Final residual = 0.000465084, No Iterations 6
GAMG:  Solving for p, Initial residual = 0.00864667, Final residual = 0.000544496, No Iterations 2
time step continuity errors : sum local = 0.00125661, global = 8.46534e-05, cumulative = 0.0185071
smoothSolver:  Solving for omega, Initial residual = 0.000744126, Final residual = 5.28921e-05, No Iterations 5
smoothSolver:  Solving for k, Initial residual = 0.00788035, Final residual = 0.000613954, No Iterations 6
ExecutionTime = 1.1 s  ClockTime = 1 s

scalarTransport execute: age
smoothSolver:  Solving for age, Initial residual = 0.0113746, Final residual = 0.00108198, No Iterations 14

Time = 82

smoothSolver:  Solving for Ux, Initial residual = 0.00922213, Final residual = 0.000630621, No Iterations 6
smoothSolver:  Solving for Uy, Initial residual = 0.00625851, Final residual = 0.000455736, No Iterations 6
GAMG:  Solving for p, Initial residual = 0.00861721, Final residual = 0.000548404, No Iterations 2
time step continuity errors : sum local = 0.0012589, global = 8.10989e-05, cumulative = 0.0185882
smoothSolver:  Solving for omega, Initial residual = 0.000728526, Final residual = 5.14704e-05, No Iterations 5
smoothSolver:  Solving for k, Initial residual = 0.00767221, Final residual = 0.000597652, No Iterations 6
ExecutionTime = 1.11 s  ClockTime = 1 s

scalarTransport execute: age
smoothSolver:  Solving for age, Initial residual = 0.0111612, Final residual = 0.0010966, No Iterations 14

Time = 83

smoothSolver:  Solving for Ux, Initial residual = 0.00903309, Final residual = 0.000616012, No Iterations 6
smoothSolver:  Solving for Uy, Initial residual = 0.00613718, Final residual = 0.000445592, No Iterations 6
GAMG:  Solving for p, Initial residual = 0.0085758, Final residual = 0.000549997, No Iterations 2
time step continuity errors : sum local = 0.0012567, global = 7.65054e-05, cumulative = 0.0186647
smoothSolver:  Solving for omega, Initial residual = 0.000710806, Final residual = 5.0021e-05, No Iterations 5
smoothSolver:  Solving for k, Initial residual = 0.00746757, Final residual = 0.000581777, No Iterations 6
ExecutionTime = 1.13 s  ClockTime = 1 s

scalarTransport execute: age
smoothSolver:  Solving for age, Initial residual = 0.011034, Final residual = 0.00110286, No Iterations 14

Time = 84

smoothSolver:  Solving for Ux, Initial residual = 0.00883117, Final residual = 0.000601058, No Iterations 6
smoothSolver:  Solving for Uy, Initial residual = 0.00600379, Final residual = 0.000434751, No Iterations 6
GAMG:  Solving for p, Initial residual = 0.00852559, Final residual = 0.000541503, No Iterations 2
time step continuity errors : sum local = 0.00123197, global = 6.67246e-05, cumulative = 0.0187315
smoothSolver:  Solving for omega, Initial residual = 0.000694475, Final residual = 4.86227e-05, No Iterations 5
smoothSolver:  Solving for k, Initial residual = 0.00726788, Final residual = 0.000566309, No Iterations 6
ExecutionTime = 1.14 s  ClockTime = 1 s

scalarTransport execute: age
smoothSolver:  Solving for age, Initial residual = 0.0110051, Final residual = 0.00097198, No Iterations 15

Time = 85

smoothSolver:  Solving for Ux, Initial residual = 0.00862484, Final residual = 0.000586381, No Iterations 6
smoothSolver:  Solving for Uy, Initial residual = 0.00586543, Final residual = 0.000423042, No Iterations 6
GAMG:  Solving for p, Initial residual = 0.00840324, Final residual = 0.000540729, No Iterations 2
time step continuity errors : sum local = 0.00122522, global = 6.10071e-05, cumulative = 0.0187925
smoothSolver:  Solving for omega, Initial residual = 0.000674799, Final residual = 4.72324e-05, No Iterations 5
smoothSolver:  Solving for k, Initial residual = 0.00707296, Final residual = 0.000551251, No Iterations 6
ExecutionTime = 1.15 s  ClockTime = 1 s

scalarTransport execute: age
smoothSolver:  Solving for age, Initial residual = 0.0109696, Final residual = 0.000962876, No Iterations 15

Time = 86

smoothSolver:  Solving for Ux, Initial residual = 0.00839818, Final residual = 0.000570309, No Iterations 6
smoothSolver:  Solving for Uy, Initial residual = 0.00571296, Final residual = 0.000410449, No Iterations 6
GAMG:  Solving for p, Initial residual = 0.00822223, Final residual = 0.000532728, No Iterations 2
time step continuity errors : sum local = 0.0012012, global = 5.34382e-05, cumulative = 0.0188459
smoothSolver:  Solving for omega, Initial residual = 0.000657882, Final residual = 4.57944e-05, No Iterations 5
smoothSolver:  Solving for k, Initial residual = 0.00688297, Final residual = 0.000536532, No Iterations 6
ExecutionTime = 1.17 s  ClockTime = 1 s

scalarTransport execute: age
smoothSolver:  Solving for age, Initial residual = 0.0108087, Final residual = 0.000949705, No Iterations 15

Time = 87

smoothSolver:  Solving for Ux, Initial residual = 0.00816893, Final residual = 0.000554093, No Iterations 6
smoothSolver:  Solving for Uy, Initial residual = 0.00554603, Final residual = 0.000396959, No Iterations 6
GAMG:  Solving for p, Initial residual = 0.00798628, Final residual = 0.000523803, No Iterations 2
time step continuity errors : sum local = 0.00117578, global = 4.52547e-05, cumulative = 0.0188912
smoothSolver:  Solving for omega, Initial residual = 0.000638464, Final residual = 4.43694e-05, No Iterations 5
smoothSolver:  Solving for k, Initial residual = 0.00669753, Final residual = 0.000522136, No Iterations 6
ExecutionTime = 1.18 s  ClockTime = 1 s

scalarTransport execute: age
smoothSolver:  Solving for age, Initial residual = 0.0105569, Final residual = 0.0010455, No Iterations 14

Time = 88

smoothSolver:  Solving for Ux, Initial residual = 0.0079349, Final residual = 0.000537638, No Iterations 6
smoothSolver:  Solving for Uy, Initial residual = 0.00537031, Final residual = 0.000382683, No Iterations 6
GAMG:  Solving for p, Initial residual = 0.0077254, Final residual = 0.000517441, No Iterations 2
time step continuity errors : sum local = 0.00115668, global = 3.82156e-05, cumulative = 0.0189294
smoothSolver:  Solving for omega, Initial residual = 0.000615591, Final residual = 4.28029e-05, No Iterations 5
smoothSolver:  Solving for k, Initial residual = 0.00651657, Final residual = 0.000508105, No Iterations 6
ExecutionTime = 1.19 s  ClockTime = 1 s

scalarTransport execute: age
smoothSolver:  Solving for age, Initial residual = 0.0101638, Final residual = 0.000967773, No Iterations 14

Time = 89

smoothSolver:  Solving for Ux, Initial residual = 0.00769825, Final residual = 0.000521043, No Iterations 6
smoothSolver:  Solving for Uy, Initial residual = 0.00518639, Final residual = 0.000367651, No Iterations 6
GAMG:  Solving for p, Initial residual = 0.00746859, Final residual = 0.000510097, No Iterations 2
time step continuity errors : sum local = 0.00113592, global = 3.10567e-05, cumulative = 0.0189604
smoothSolver:  Solving for omega, Initial residual = 0.000594967, Final residual = 4.1366e-05, No Iterations 5
smoothSolver:  Solving for k, Initial residual = 0.00633911, Final residual = 0.000494347, No Iterations 6
ExecutionTime = 1.21 s  ClockTime = 1 s

scalarTransport execute: age
smoothSolver:  Solving for age, Initial residual = 0.00969332, Final residual = 0.000873287, No Iterations 14

Time = 90

smoothSolver:  Solving for Ux, Initial residual = 0.00745809, Final residual = 0.000504271, No Iterations 6
smoothSolver:  Solving for Uy, Initial residual = 0.00499214, Final residual = 0.000351993, No Iterations 6
GAMG:  Solving for p, Initial residual = 0.00725612, Final residual = 0.000502839, No Iterations 2
time step continuity errors : sum local = 0.00111553, global = 2.45543e-05, cumulative = 0.018985
smoothSolver:  Solving for omega, Initial residual = 0.000575304, Final residual = 4.00006e-05, No Iterations 5
smoothSolver:  Solving for k, Initial residual = 0.00616507, Final residual = 0.000480829, No Iterations 6
ExecutionTime = 1.22 s  ClockTime = 1 s

scalarTransport execute: age
smoothSolver:  Solving for age, Initial residual = 0.00916854, Final residual = 0.000909159, No Iterations 13

Time = 91

smoothSolver:  Solving for Ux, Initial residual = 0.0072116, Final residual = 0.000487156, No Iterations 6
smoothSolver:  Solving for Uy, Initial residual = 0.00479028, Final residual = 0.00033596, No Iterations 6
GAMG:  Solving for p, Initial residual = 0.00707746, Final residual = 0.000493017, No Iterations 2
time step continuity errors : sum local = 0.00108991, global = 1.78408e-05, cumulative = 0.0190028
smoothSolver:  Solving for omega, Initial residual = 0.00055505, Final residual = 3.86345e-05, No Iterations 5
smoothSolver:  Solving for k, Initial residual = 0.0059941, Final residual = 0.000467541, No Iterations 6
ExecutionTime = 1.23 s  ClockTime = 1 s

scalarTransport execute: age
smoothSolver:  Solving for age, Initial residual = 0.00865938, Final residual = 0.000815473, No Iterations 13

Time = 92

smoothSolver:  Solving for Ux, Initial residual = 0.00696045, Final residual = 0.000469805, No Iterations 6
smoothSolver:  Solving for Uy, Initial residual = 0.00459206, Final residual = 0.000319895, No Iterations 6
GAMG:  Solving for p, Initial residual = 0.00694129, Final residual = 0.000482309, No Iterations 2
time step continuity errors : sum local = 0.0010628, global = 1.21608e-05, cumulative = 0.019015
smoothSolver:  Solving for omega, Initial residual = 0.000531987, Final residual = 3.72368e-05, No Iterations 5
smoothSolver:  Solving for k, Initial residual = 0.00582826, Final residual = 0.000454438, No Iterations 6
ExecutionTime = 1.24 s  ClockTime = 1 s

scalarTransport execute: age
smoothSolver:  Solving for age, Initial residual = 0.00813902, Final residual = 0.000723469, No Iterations 13

Time = 93

smoothSolver:  Solving for Ux, Initial residual = 0.00670867, Final residual = 0.000452266, No Iterations 6
smoothSolver:  Solving for Uy, Initial residual = 0.00439378, Final residual = 0.000303966, No Iterations 6
GAMG:  Solving for p, Initial residual = 0.00678354, Final residual = 0.000471227, No Iterations 2
time step continuity errors : sum local = 0.00103446, global = 1.19176e-05, cumulative = 0.0190269
smoothSolver:  Solving for omega, Initial residual = 0.000516433, Final residual = 3.60984e-05, No Iterations 5
smoothSolver:  Solving for k, Initial residual = 0.00566371, Final residual = 0.000441336, No Iterations 6
ExecutionTime = 1.26 s  ClockTime = 1 s

scalarTransport execute: age
smoothSolver:  Solving for age, Initial residual = 0.0076527, Final residual = 0.000739263, No Iterations 12

Time = 94

smoothSolver:  Solving for Ux, Initial residual = 0.00645496, Final residual = 0.000434122, No Iterations 6
smoothSolver:  Solving for Uy, Initial residual = 0.0041969, Final residual = 0.000288377, No Iterations 6
GAMG:  Solving for p, Initial residual = 0.00660888, Final residual = 0.000453997, No Iterations 2
time step continuity errors : sum local = 0.00099434, global = 8.83892e-06, cumulative = 0.0190357
smoothSolver:  Solving for omega, Initial residual = 0.000503627, Final residual = 3.49618e-05, No Iterations 5
smoothSolver:  Solving for k, Initial residual = 0.0055, Final residual = 0.000428206, No Iterations 6
ExecutionTime = 1.27 s  ClockTime = 1 s

scalarTransport execute: age
smoothSolver:  Solving for age, Initial residual = 0.00722023, Final residual = 0.000648935, No Iterations 12

Time = 95

smoothSolver:  Solving for Ux, Initial residual = 0.00621064, Final residual = 0.000416655, No Iterations 6
smoothSolver:  Solving for Uy, Initial residual = 0.00400833, Final residual = 0.000273361, No Iterations 6
GAMG:  Solving for p, Initial residual = 0.00640235, Final residual = 0.000438747, No Iterations 2
time step continuity errors : sum local = 0.000958531, global = 1.08414e-05, cumulative = 0.0190466
smoothSolver:  Solving for omega, Initial residual = 0.000486659, Final residual = 3.38119e-05, No Iterations 5
smoothSolver:  Solving for k, Initial residual = 0.00533656, Final residual = 0.000415052, No Iterations 6
ExecutionTime = 1.28 s  ClockTime = 1 s

scalarTransport execute: age
smoothSolver:  Solving for age, Initial residual = 0.00681418, Final residual = 0.000673758, No Iterations 11

Time = 96

[...]
smoothSolver:  Solving for Ux, Initial residual = 5.32858e-07, Final residual = 4.64636e-08, No Iterations 5
smoothSolver:  Solving for Uy, Initial residual = 3.26842e-07, Final residual = 2.81395e-08, No Iterations 5
GAMG:  Solving for p, Initial residual = 1.25778e-06, Final residual = 7.29688e-08, No Iterations 2
time step continuity errors : sum local = 1.68393e-07, global = -1.17011e-09, cumulative = 0.0201512
smoothSolver:  Solving for omega, Initial residual = 4.01804e-08, Final residual = 9.98369e-09, No Iterations 2
smoothSolver:  Solving for k, Initial residual = 8.74012e-08, Final residual = 7.50952e-09, No Iterations 5
ExecutionTime = 7.93 s  ClockTime = 8 s

scalarTransport execute: age
smoothSolver:  Solving for age, Initial residual = 0.000254254, Final residual = 2.33898e-05, No Iterations 15

Time = 621

smoothSolver:  Solving for Ux, Initial residual = 5.27704e-07, Final residual = 4.59797e-08, No Iterations 5
smoothSolver:  Solving for Uy, Initial residual = 3.23747e-07, Final residual = 2.78666e-08, No Iterations 5
GAMG:  Solving for p, Initial residual = 1.24674e-06, Final residual = 7.20947e-08, No Iterations 2
time step continuity errors : sum local = 1.66375e-07, global = -8.92857e-10, cumulative = 0.0201512
smoothSolver:  Solving for omega, Initial residual = 4.08492e-08, Final residual = 5.89876e-09, No Iterations 3
smoothSolver:  Solving for k, Initial residual = 8.59168e-08, Final residual = 7.36863e-09, No Iterations 5
ExecutionTime = 7.94 s  ClockTime = 8 s

scalarTransport execute: age
smoothSolver:  Solving for age, Initial residual = 0.000253812, Final residual = 2.33485e-05, No Iterations 15

Time = 622

smoothSolver:  Solving for Ux, Initial residual = 5.2299e-07, Final residual = 4.55449e-08, No Iterations 5
smoothSolver:  Solving for Uy, Initial residual = 3.20926e-07, Final residual = 2.76363e-08, No Iterations 5
GAMG:  Solving for p, Initial residual = 1.23641e-06, Final residual = 7.14899e-08, No Iterations 2
time step continuity errors : sum local = 1.64979e-07, global = -6.51428e-10, cumulative = 0.0201512
smoothSolver:  Solving for omega, Initial residual = 4.02066e-08, Final residual = 5.81878e-09, No Iterations 3
smoothSolver:  Solving for k, Initial residual = 8.44822e-08, Final residual = 7.23153e-09, No Iterations 5
ExecutionTime = 7.96 s  ClockTime = 8 s

scalarTransport execute: age
smoothSolver:  Solving for age, Initial residual = 0.000253373, Final residual = 2.33075e-05, No Iterations 15

Time = 623

smoothSolver:  Solving for Ux, Initial residual = 5.18168e-07, Final residual = 4.51187e-08, No Iterations 5
smoothSolver:  Solving for Uy, Initial residual = 3.18208e-07, Final residual = 2.74158e-08, No Iterations 5
GAMG:  Solving for p, Initial residual = 1.22573e-06, Final residual = 7.13315e-08, No Iterations 2
time step continuity errors : sum local = 1.64614e-07, global = -1.48696e-09, cumulative = 0.0201512
smoothSolver:  Solving for omega, Initial residual = 3.9417e-08, Final residual = 9.98082e-09, No Iterations 2
smoothSolver:  Solving for k, Initial residual = 8.30791e-08, Final residual = 7.08808e-09, No Iterations 5
ExecutionTime = 7.97 s  ClockTime = 8 s

scalarTransport execute: age
smoothSolver:  Solving for age, Initial residual = 0.000252934, Final residual = 2.32668e-05, No Iterations 15

Time = 624

smoothSolver:  Solving for Ux, Initial residual = 5.13622e-07, Final residual = 4.47492e-08, No Iterations 5
smoothSolver:  Solving for Uy, Initial residual = 3.15265e-07, Final residual = 2.71817e-08, No Iterations 5
GAMG:  Solving for p, Initial residual = 1.215e-06, Final residual = 7.02465e-08, No Iterations 2
time step continuity errors : sum local = 1.6211e-07, global = -1.38637e-09, cumulative = 0.0201512
smoothSolver:  Solving for omega, Initial residual = 4.05589e-08, Final residual = 5.88042e-09, No Iterations 3
smoothSolver:  Solving for k, Initial residual = 8.16783e-08, Final residual = 6.95801e-09, No Iterations 5
ExecutionTime = 7.98 s  ClockTime = 8 s

scalarTransport execute: age
smoothSolver:  Solving for age, Initial residual = 0.000252498, Final residual = 2.32264e-05, No Iterations 15

Time = 625

smoothSolver:  Solving for Ux, Initial residual = 5.08697e-07, Final residual = 4.42914e-08, No Iterations 5
smoothSolver:  Solving for Uy, Initial residual = 3.11955e-07, Final residual = 2.68951e-08, No Iterations 5
GAMG:  Solving for p, Initial residual = 1.20229e-06, Final residual = 6.93011e-08, No Iterations 2
time step continuity errors : sum local = 1.59928e-07, global = -1.14139e-09, cumulative = 0.0201512
smoothSolver:  Solving for omega, Initial residual = 3.95632e-08, Final residual = 5.77967e-09, No Iterations 3
smoothSolver:  Solving for k, Initial residual = 8.02751e-08, Final residual = 6.83039e-09, No Iterations 5
ExecutionTime = 8 s  ClockTime = 8 s

scalarTransport execute: age
smoothSolver:  Solving for age, Initial residual = 0.000252063, Final residual = 2.31864e-05, No Iterations 15

Time = 626

smoothSolver:  Solving for Ux, Initial residual = 5.03802e-07, Final residual = 4.38481e-08, No Iterations 5
smoothSolver:  Solving for Uy, Initial residual = 3.09096e-07, Final residual = 2.66631e-08, No Iterations 5
GAMG:  Solving for p, Initial residual = 1.19082e-06, Final residual = 6.86815e-08, No Iterations 2
time step continuity errors : sum local = 1.58498e-07, global = -9.21838e-10, cumulative = 0.0201512
smoothSolver:  Solving for omega, Initial residual = 3.89881e-08, Final residual = 9.88676e-09, No Iterations 2
smoothSolver:  Solving for k, Initial residual = 7.89257e-08, Final residual = 6.69672e-09, No Iterations 5
ExecutionTime = 8.01 s  ClockTime = 8 s

scalarTransport execute: age
smoothSolver:  Solving for age, Initial residual = 0.000251628, Final residual = 2.31466e-05, No Iterations 15

Time = 627

smoothSolver:  Solving for Ux, Initial residual = 4.98516e-07, Final residual = 4.33835e-08, No Iterations 5
smoothSolver:  Solving for Uy, Initial residual = 3.0636e-07, Final residual = 2.6437e-08, No Iterations 5
GAMG:  Solving for p, Initial residual = 1.18119e-06, Final residual = 6.82307e-08, No Iterations 2
time step continuity errors : sum local = 1.57458e-07, global = -7.17508e-10, cumulative = 0.0201512
smoothSolver:  Solving for omega, Initial residual = 3.95974e-08, Final residual = 5.81459e-09, No Iterations 3
smoothSolver:  Solving for k, Initial residual = 7.76478e-08, Final residual = 6.57739e-09, No Iterations 5
ExecutionTime = 8.02 s  ClockTime = 8 s

scalarTransport execute: age
smoothSolver:  Solving for age, Initial residual = 0.000251195, Final residual = 2.31071e-05, No Iterations 15

Time = 628

smoothSolver:  Solving for Ux, Initial residual = 4.9377e-07, Final residual = 4.29643e-08, No Iterations 5
smoothSolver:  Solving for Uy, Initial residual = 3.03364e-07, Final residual = 2.61921e-08, No Iterations 5
GAMG:  Solving for p, Initial residual = 1.17016e-06, Final residual = 6.80063e-08, No Iterations 2
time step continuity errors : sum local = 1.5694e-07, global = -1.5788e-09, cumulative = 0.0201512
smoothSolver:  Solving for omega, Initial residual = 3.85735e-08, Final residual = 9.88463e-09, No Iterations 2
smoothSolver:  Solving for k, Initial residual = 7.64061e-08, Final residual = 6.45296e-09, No Iterations 5
ExecutionTime = 8.04 s  ClockTime = 8 s

scalarTransport execute: age
smoothSolver:  Solving for age, Initial residual = 0.000250762, Final residual = 2.30678e-05, No Iterations 15

Time = 629

smoothSolver:  Solving for Ux, Initial residual = 4.89158e-07, Final residual = 4.25949e-08, No Iterations 5
smoothSolver:  Solving for Uy, Initial residual = 3.00155e-07, Final residual = 2.59376e-08, No Iterations 5
GAMG:  Solving for p, Initial residual = 1.15805e-06, Final residual = 6.68117e-08, No Iterations 2
time step continuity errors : sum local = 1.54183e-07, global = -1.51242e-09, cumulative = 0.0201512
smoothSolver:  Solving for omega, Initial residual = 3.94541e-08, Final residual = 5.79921e-09, No Iterations 3
smoothSolver:  Solving for k, Initial residual = 7.51289e-08, Final residual = 6.33843e-09, No Iterations 5
ExecutionTime = 8.05 s  ClockTime = 8 s

scalarTransport execute: age
smoothSolver:  Solving for age, Initial residual = 0.000250333, Final residual = 2.30287e-05, No Iterations 15

Time = 630

smoothSolver:  Solving for Ux, Initial residual = 4.84234e-07, Final residual = 4.21401e-08, No Iterations 5
smoothSolver:  Solving for Uy, Initial residual = 2.96807e-07, Final residual = 2.56446e-08, No Iterations 5
GAMG:  Solving for p, Initial residual = 1.14517e-06, Final residual = 6.57785e-08, No Iterations 2
time step continuity errors : sum local = 1.51798e-07, global = -1.31776e-09, cumulative = 0.0201512
smoothSolver:  Solving for omega, Initial residual = 3.83355e-08, Final residual = 9.83264e-09, No Iterations 2
smoothSolver:  Solving for k, Initial residual = 7.38546e-08, Final residual = 6.21784e-09, No Iterations 5
ExecutionTime = 8.06 s  ClockTime = 8 s

scalarTransport execute: age
smoothSolver:  Solving for age, Initial residual = 0.000249905, Final residual = 2.29899e-05, No Iterations 15

Time = 631

smoothSolver:  Solving for Ux, Initial residual = 4.78971e-07, Final residual = 4.16644e-08, No Iterations 5
smoothSolver:  Solving for Uy, Initial residual = 2.9392e-07, Final residual = 2.54057e-08, No Iterations 5
GAMG:  Solving for p, Initial residual = 1.13407e-06, Final residual = 6.51288e-08, No Iterations 2
time step continuity errors : sum local = 1.50299e-07, global = -1.13815e-09, cumulative = 0.0201512
smoothSolver:  Solving for omega, Initial residual = 3.88281e-08, Final residual = 9.9919e-09, No Iterations 2
smoothSolver:  Solving for k, Initial residual = 7.26854e-08, Final residual = 9.82211e-09, No Iterations 4
ExecutionTime = 8.07 s  ClockTime = 8 s

scalarTransport execute: age
smoothSolver:  Solving for age, Initial residual = 0.000249478, Final residual = 2.29512e-05, No Iterations 15

Time = 632

smoothSolver:  Solving for Ux, Initial residual = 4.73603e-07, Final residual = 4.11912e-08, No Iterations 5
smoothSolver:  Solving for Uy, Initial residual = 2.91131e-07, Final residual = 2.51766e-08, No Iterations 5
GAMG:  Solving for p, Initial residual = 1.12386e-06, Final residual = 6.46505e-08, No Iterations 2
time step continuity errors : sum local = 1.49195e-07, global = -9.72685e-10, cumulative = 0.0201512
smoothSolver:  Solving for omega, Initial residual = 3.89555e-08, Final residual = 5.82341e-09, No Iterations 3
smoothSolver:  Solving for k, Initial residual = 7.16493e-08, Final residual = 9.67384e-09, No Iterations 4
ExecutionTime = 8.09 s  ClockTime = 8 s

scalarTransport execute: age
smoothSolver:  Solving for age, Initial residual = 0.000249053, Final residual = 2.29125e-05, No Iterations 15

Time = 633

smoothSolver:  Solving for Ux, Initial residual = 4.68734e-07, Final residual = 4.07626e-08, No Iterations 5
smoothSolver:  Solving for Uy, Initial residual = 2.88047e-07, Final residual = 2.49244e-08, No Iterations 5
GAMG:  Solving for p, Initial residual = 1.11173e-06, Final residual = 6.4111e-08, No Iterations 2
time step continuity errors : sum local = 1.4795e-07, global = -8.62092e-10, cumulative = 0.0201512
smoothSolver:  Solving for omega, Initial residual = 3.78248e-08, Final residual = 9.80983e-09, No Iterations 2
smoothSolver:  Solving for k, Initial residual = 7.06119e-08, Final residual = 9.51782e-09, No Iterations 4
ExecutionTime = 8.1 s  ClockTime = 8 s

scalarTransport execute: age
smoothSolver:  Solving for age, Initial residual = 0.000248629, Final residual = 2.2874e-05, No Iterations 15

Time = 634

smoothSolver:  Solving for Ux, Initial residual = 4.63502e-07, Final residual = 4.03066e-08, No Iterations 5
smoothSolver:  Solving for Uy, Initial residual = 2.84883e-07, Final residual = 2.4664e-08, No Iterations 5
GAMG:  Solving for p, Initial residual = 1.09983e-06, Final residual = 6.38025e-08, No Iterations 2
time step continuity errors : sum local = 1.47238e-07, global = -1.72716e-09, cumulative = 0.0201512
smoothSolver:  Solving for omega, Initial residual = 3.79418e-08, Final residual = 9.91378e-09, No Iterations 2
smoothSolver:  Solving for k, Initial residual = 6.96809e-08, Final residual = 9.37258e-09, No Iterations 4
ExecutionTime = 8.11 s  ClockTime = 8 s

scalarTransport execute: age
smoothSolver:  Solving for age, Initial residual = 0.000248206, Final residual = 2.28355e-05, No Iterations 15

Time = 635

smoothSolver:  Solving for Ux, Initial residual = 4.58838e-07, Final residual = 3.99271e-08, No Iterations 5
smoothSolver:  Solving for Uy, Initial residual = 2.81542e-07, Final residual = 2.43961e-08, No Iterations 5
GAMG:  Solving for p, Initial residual = 1.08794e-06, Final residual = 6.25317e-08, No Iterations 2
time step continuity errors : sum local = 1.44306e-07, global = -1.71668e-09, cumulative = 0.0201512
smoothSolver:  Solving for omega, Initial residual = 3.84053e-08, Final residual = 9.98592e-09, No Iterations 2
smoothSolver:  Solving for k, Initial residual = 6.86777e-08, Final residual = 9.22748e-09, No Iterations 4
ExecutionTime = 8.12 s  ClockTime = 8 s

scalarTransport execute: age
smoothSolver:  Solving for age, Initial residual = 0.000247785, Final residual = 2.27971e-05, No Iterations 15

Time = 636

smoothSolver:  Solving for Ux, Initial residual = 4.53478e-07, Final residual = 3.94318e-08, No Iterations 5
smoothSolver:  Solving for Uy, Initial residual = 2.78101e-07, Final residual = 2.40917e-08, No Iterations 5
GAMG:  Solving for p, Initial residual = 1.07464e-06, Final residual = 6.14794e-08, No Iterations 2
time step continuity errors : sum local = 1.41877e-07, global = -1.56752e-09, cumulative = 0.0201512
smoothSolver:  Solving for omega, Initial residual = 3.82168e-08, Final residual = 5.79508e-09, No Iterations 3
smoothSolver:  Solving for k, Initial residual = 6.766e-08, Final residual = 9.0902e-09, No Iterations 4
ExecutionTime = 8.13 s  ClockTime = 8 s

scalarTransport execute: age
smoothSolver:  Solving for age, Initial residual = 0.000247364, Final residual = 2.27588e-05, No Iterations 15

Time = 637

smoothSolver:  Solving for Ux, Initial residual = 4.48471e-07, Final residual = 3.89829e-08, No Iterations 5
smoothSolver:  Solving for Uy, Initial residual = 2.75008e-07, Final residual = 2.38402e-08, No Iterations 5
GAMG:  Solving for p, Initial residual = 1.0626e-06, Final residual = 6.07895e-08, No Iterations 2
time step continuity errors : sum local = 1.40285e-07, global = -1.42628e-09, cumulative = 0.0201512
smoothSolver:  Solving for omega, Initial residual = 3.70012e-08, Final residual = 9.69739e-09, No Iterations 2
smoothSolver:  Solving for k, Initial residual = 6.66853e-08, Final residual = 8.94604e-09, No Iterations 4
ExecutionTime = 8.15 s  ClockTime = 8 s

scalarTransport execute: age
smoothSolver:  Solving for age, Initial residual = 0.000246944, Final residual = 2.27206e-05, No Iterations 15

Time = 638

smoothSolver:  Solving for Ux, Initial residual = 4.43074e-07, Final residual = 3.85123e-08, No Iterations 5
smoothSolver:  Solving for Uy, Initial residual = 2.7208e-07, Final residual = 2.35977e-08, No Iterations 5
GAMG:  Solving for p, Initial residual = 1.05167e-06, Final residual = 6.03096e-08, No Iterations 2
time step continuity errors : sum local = 1.39177e-07, global = -1.28864e-09, cumulative = 0.0201512
smoothSolver:  Solving for omega, Initial residual = 3.71379e-08, Final residual = 9.76565e-09, No Iterations 2
smoothSolver:  Solving for k, Initial residual = 6.5764e-08, Final residual = 8.80919e-09, No Iterations 4
ExecutionTime = 8.16 s  ClockTime = 8 s

scalarTransport execute: age
smoothSolver:  Solving for age, Initial residual = 0.000246525, Final residual = 2.26823e-05, No Iterations 15

Time = 639

smoothSolver:  Solving for Ux, Initial residual = 4.37858e-07, Final residual = 3.80553e-08, No Iterations 5
smoothSolver:  Solving for Uy, Initial residual = 2.6895e-07, Final residual = 2.33368e-08, No Iterations 5
GAMG:  Solving for p, Initial residual = 1.04081e-06, Final residual = 5.97953e-08, No Iterations 2
time step continuity errors : sum local = 1.3799e-07, global = -1.19647e-09, cumulative = 0.0201512
smoothSolver:  Solving for omega, Initial residual = 3.71437e-08, Final residual = 9.79905e-09, No Iterations 2
smoothSolver:  Solving for k, Initial residual = 6.48551e-08, Final residual = 8.67527e-09, No Iterations 4
ExecutionTime = 8.17 s  ClockTime = 8 s

scalarTransport execute: age
smoothSolver:  Solving for age, Initial residual = 0.000246107, Final residual = 2.26441e-05, No Iterations 15

Time = 640

smoothSolver:  Solving for Ux, Initial residual = 4.32728e-07, Final residual = 3.76082e-08, No Iterations 5
smoothSolver:  Solving for Uy, Initial residual = 2.65664e-07, Final residual = 2.30643e-08, No Iterations 5
GAMG:  Solving for p, Initial residual = 1.02903e-06, Final residual = 5.91693e-08, No Iterations 2
time step continuity errors : sum local = 1.36546e-07, global = -1.11954e-09, cumulative = 0.0201512
smoothSolver:  Solving for omega, Initial residual = 3.70515e-08, Final residual = 9.80576e-09, No Iterations 2
smoothSolver:  Solving for k, Initial residual = 6.39461e-08, Final residual = 8.54369e-09, No Iterations 4
ExecutionTime = 8.18 s  ClockTime = 8 s

scalarTransport execute: age
smoothSolver:  Solving for age, Initial residual = 0.000245691, Final residual = 2.2606e-05, No Iterations 15

Time = 641

smoothSolver:  Solving for Ux, Initial residual = 4.27677e-07, Final residual = 3.71667e-08, No Iterations 5
smoothSolver:  Solving for Uy, Initial residual = 2.62407e-07, Final residual = 2.27919e-08, No Iterations 5
GAMG:  Solving for p, Initial residual = 1.01704e-06, Final residual = 5.84648e-08, No Iterations 2
time step continuity errors : sum local = 1.3492e-07, global = -1.07092e-09, cumulative = 0.0201512
smoothSolver:  Solving for omega, Initial residual = 3.68954e-08, Final residual = 9.79326e-09, No Iterations 2
smoothSolver:  Solving for k, Initial residual = 6.30453e-08, Final residual = 8.41435e-09, No Iterations 4
ExecutionTime = 8.2 s  ClockTime = 8 s

scalarTransport execute: age
smoothSolver:  Solving for age, Initial residual = 0.000245275, Final residual = 2.25679e-05, No Iterations 15

Time = 642

smoothSolver:  Solving for Ux, Initial residual = 4.22655e-07, Final residual = 3.67282e-08, No Iterations 5
smoothSolver:  Solving for Uy, Initial residual = 2.59188e-07, Final residual = 2.25227e-08, No Iterations 5
GAMG:  Solving for p, Initial residual = 1.00499e-06, Final residual = 5.77265e-08, No Iterations 2
time step continuity errors : sum local = 1.33216e-07, global = -1.04514e-09, cumulative = 0.0201512
smoothSolver:  Solving for omega, Initial residual = 3.66993e-08, Final residual = 9.76632e-09, No Iterations 2
smoothSolver:  Solving for k, Initial residual = 6.21517e-08, Final residual = 8.28663e-09, No Iterations 4
ExecutionTime = 8.21 s  ClockTime = 8 s

scalarTransport execute: age
smoothSolver:  Solving for age, Initial residual = 0.000244861, Final residual = 2.25299e-05, No Iterations 15

Time = 643

smoothSolver:  Solving for Ux, Initial residual = 4.17664e-07, Final residual = 3.62916e-08, No Iterations 5
smoothSolver:  Solving for Uy, Initial residual = 2.56008e-07, Final residual = 2.22558e-08, No Iterations 5
GAMG:  Solving for p, Initial residual = 9.93107e-07, Final residual = 5.69904e-08, No Iterations 2
time step continuity errors : sum local = 1.31517e-07, global = -1.04461e-09, cumulative = 0.0201512
smoothSolver:  Solving for omega, Initial residual = 3.64698e-08, Final residual = 9.72797e-09, No Iterations 2
smoothSolver:  Solving for k, Initial residual = 6.12647e-08, Final residual = 8.16069e-09, No Iterations 4
ExecutionTime = 8.22 s  ClockTime = 8 s


SIMPLE solution converged in 643 iterations

scalarTransport execute: age
smoothSolver:  Solving for age, Initial residual = 0.000244448, Final residual = 2.2492e-05, No Iterations 15

End

