/*---------------------------------------------------------------------------*\
| =========                 |                                                 |
| \\      /  F ield         | OpenFOAM: The Open Source CFD Toolbox           |
|  \\    /   O peration     | Version:  v2012                                 |
|   \\  /    A nd           | Website:  www.openfoam.com                      |
|    \\/     M anipulation  |                                                 |
\*---------------------------------------------------------------------------*/
Build  : _7bdb509494-20201222 OPENFOAM=2012
Arch   : "LSB;label=32;scalar=64"
Exec   : simpleFoam
Date   : Feb 23 2023
Time   : 11:30:03
Host   : johnsDesktop
PID    : 1442
I/O    : uncollated
Case   : /home/john/of_runs/cases/0_8_2-00740_9
nProcs : 1
trapFpe: Floating point exception trapping enabled (FOAM_SIGFPE).
fileModificationChecking : Monitoring run-time modified files using timeStampMaster (fileModificationSkew 5, maxFileModificationPolls 20)
allowSystemOperations : Allowing user-supplied system call operations

// * * * * * * * * * * * * * * * * * * * * * * * * * * * * * * * * * * * * * //
Create time

Create mesh for time = 0


SIMPLE: convergence criteria
    field p	 tolerance 1e-06
    field U	 tolerance 1e-06
    field "(k|epsilon|omega|f|v2|age)"	 tolerance 1e-05

Reading field p

Reading field U

Reading/calculating face flux field phi

Selecting incompressible transport model Newtonian
Selecting turbulence model type RAS
Selecting RAS turbulence model kOmegaSST
Selecting patchDistMethod meshWave
RAS
{
    RASModel        kOmegaSST;
    turbulence      on;
    printCoeffs     on;
    alphaK1         0.85;
    alphaK2         1;
    alphaOmega1     0.5;
    alphaOmega2     0.856;
    gamma1          0.555556;
    gamma2          0.44;
    beta1           0.075;
    beta2           0.0828;
    betaStar        0.09;
    a1              0.31;
    b1              1;
    c1              10;
    F3              false;
    decayControl    false;
    kInf            0;
    omegaInf        0;
}

No MRF models present

No finite volume options present

Starting time loop

Selecting finite volume options type scalarSemiImplicitSource
    Source: unitySource
    - selecting all cells
    - selected 6024 cell(s) with volume 0.0316
Time = 1

smoothSolver:  Solving for Ux, Initial residual = 0, Final residual = 0, No Iterations 0
smoothSolver:  Solving for Uy, Initial residual = 1, Final residual = 0.0855057, No Iterations 2
GAMG:  Solving for p, Initial residual = 1, Final residual = 0.0663013, No Iterations 10
time step continuity errors : sum local = 0.00419628, global = -0.000928645, cumulative = -0.000928645
smoothSolver:  Solving for omega, Initial residual = 0.262265, Final residual = 0.0111187, No Iterations 3
smoothSolver:  Solving for k, Initial residual = 1, Final residual = 0.0767204, No Iterations 3
ExecutionTime = 0.05 s  ClockTime = 0 s

scalarTransport execute: age
smoothSolver:  Solving for age, Initial residual = 1, Final residual = 0.0904657, No Iterations 6

Time = 2

smoothSolver:  Solving for Ux, Initial residual = 0.505461, Final residual = 0.0412207, No Iterations 6
smoothSolver:  Solving for Uy, Initial residual = 0.277453, Final residual = 0.0196412, No Iterations 6
GAMG:  Solving for p, Initial residual = 0.0551456, Final residual = 0.00456906, No Iterations 3
time step continuity errors : sum local = 0.0590143, global = 0.00718888, cumulative = 0.00626024
smoothSolver:  Solving for omega, Initial residual = 0.239187, Final residual = 0.0219886, No Iterations 3
smoothSolver:  Solving for k, Initial residual = 0.59295, Final residual = 0.0541417, No Iterations 4
ExecutionTime = 0.07 s  ClockTime = 0 s

scalarTransport execute: age
smoothSolver:  Solving for age, Initial residual = 0.538594, Final residual = 0.046231, No Iterations 7

Time = 3

smoothSolver:  Solving for Ux, Initial residual = 0.203816, Final residual = 0.0139177, No Iterations 6
smoothSolver:  Solving for Uy, Initial residual = 0.10707, Final residual = 0.0103745, No Iterations 5
GAMG:  Solving for p, Initial residual = 0.0589866, Final residual = 0.00401317, No Iterations 4
time step continuity errors : sum local = 0.0266337, global = 0.00104314, cumulative = 0.00730338
smoothSolver:  Solving for omega, Initial residual = 0.213308, Final residual = 0.0198991, No Iterations 4
smoothSolver:  Solving for k, Initial residual = 0.493673, Final residual = 0.0363193, No Iterations 5
ExecutionTime = 0.08 s  ClockTime = 0 s

scalarTransport execute: age
smoothSolver:  Solving for age, Initial residual = 0.369777, Final residual = 0.0354205, No Iterations 9

Time = 4

smoothSolver:  Solving for Ux, Initial residual = 0.117426, Final residual = 0.0109755, No Iterations 4
smoothSolver:  Solving for Uy, Initial residual = 0.063323, Final residual = 0.00415974, No Iterations 5
GAMG:  Solving for p, Initial residual = 0.0953857, Final residual = 0.00785336, No Iterations 2
time step continuity errors : sum local = 0.0257373, global = 0.00321142, cumulative = 0.0105148
smoothSolver:  Solving for omega, Initial residual = 0.122615, Final residual = 0.00814478, No Iterations 5
smoothSolver:  Solving for k, Initial residual = 0.419234, Final residual = 0.0349887, No Iterations 5
ExecutionTime = 0.09 s  ClockTime = 0 s

scalarTransport execute: age
smoothSolver:  Solving for age, Initial residual = 0.267537, Final residual = 0.0221482, No Iterations 6

Time = 5

smoothSolver:  Solving for Ux, Initial residual = 0.0698921, Final residual = 0.006046, No Iterations 5
smoothSolver:  Solving for Uy, Initial residual = 0.0429102, Final residual = 0.00359729, No Iterations 5
GAMG:  Solving for p, Initial residual = 0.0779005, Final residual = 0.00321549, No Iterations 2
time step continuity errors : sum local = 0.0105146, global = 0.00186211, cumulative = 0.0123769
smoothSolver:  Solving for omega, Initial residual = 0.0849241, Final residual = 0.00622646, No Iterations 5
smoothSolver:  Solving for k, Initial residual = 0.324595, Final residual = 0.0293336, No Iterations 5
ExecutionTime = 0.1 s  ClockTime = 0 s

scalarTransport execute: age
smoothSolver:  Solving for age, Initial residual = 0.207728, Final residual = 0.019449, No Iterations 5

Time = 6

smoothSolver:  Solving for Ux, Initial residual = 0.057261, Final residual = 0.00554217, No Iterations 5
smoothSolver:  Solving for Uy, Initial residual = 0.030883, Final residual = 0.00264699, No Iterations 5
GAMG:  Solving for p, Initial residual = 0.0579821, Final residual = 0.00301623, No Iterations 2
time step continuity errors : sum local = 0.00987083, global = 0.00103247, cumulative = 0.0134094
smoothSolver:  Solving for omega, Initial residual = 0.0649257, Final residual = 0.00512982, No Iterations 5
smoothSolver:  Solving for k, Initial residual = 0.25929, Final residual = 0.024929, No Iterations 5
ExecutionTime = 0.11 s  ClockTime = 0 s

scalarTransport execute: age
smoothSolver:  Solving for age, Initial residual = 0.161415, Final residual = 0.0157224, No Iterations 5

Time = 7

smoothSolver:  Solving for Ux, Initial residual = 0.05055, Final residual = 0.00503189, No Iterations 5
smoothSolver:  Solving for Uy, Initial residual = 0.0266067, Final residual = 0.00245449, No Iterations 5
GAMG:  Solving for p, Initial residual = 0.04546, Final residual = 0.00311997, No Iterations 2
time step continuity errors : sum local = 0.0105033, global = 0.000238547, cumulative = 0.0136479
smoothSolver:  Solving for omega, Initial residual = 0.0487842, Final residual = 0.00413275, No Iterations 5
smoothSolver:  Solving for k, Initial residual = 0.214688, Final residual = 0.0136347, No Iterations 6
ExecutionTime = 0.13 s  ClockTime = 0 s

scalarTransport execute: age
smoothSolver:  Solving for age, Initial residual = 0.133316, Final residual = 0.0111657, No Iterations 6

Time = 8

smoothSolver:  Solving for Ux, Initial residual = 0.0455344, Final residual = 0.00298833, No Iterations 6
smoothSolver:  Solving for Uy, Initial residual = 0.0252604, Final residual = 0.00247447, No Iterations 5
GAMG:  Solving for p, Initial residual = 0.0379001, Final residual = 0.0028947, No Iterations 2
time step continuity errors : sum local = 0.009983, global = -0.000302399, cumulative = 0.0133455
smoothSolver:  Solving for omega, Initial residual = 0.0391676, Final residual = 0.00341435, No Iterations 5
smoothSolver:  Solving for k, Initial residual = 0.182673, Final residual = 0.0120257, No Iterations 6
ExecutionTime = 0.14 s  ClockTime = 0 s

scalarTransport execute: age
smoothSolver:  Solving for age, Initial residual = 0.114914, Final residual = 0.00979522, No Iterations 6

Time = 9

smoothSolver:  Solving for Ux, Initial residual = 0.041292, Final residual = 0.00408128, No Iterations 5
smoothSolver:  Solving for Uy, Initial residual = 0.0255026, Final residual = 0.00171371, No Iterations 6
GAMG:  Solving for p, Initial residual = 0.0326333, Final residual = 0.00236256, No Iterations 2
time step continuity errors : sum local = 0.00840892, global = -0.000479284, cumulative = 0.0128662
smoothSolver:  Solving for omega, Initial residual = 0.0321264, Final residual = 0.0028715, No Iterations 5
smoothSolver:  Solving for k, Initial residual = 0.158091, Final residual = 0.0107286, No Iterations 6
ExecutionTime = 0.15 s  ClockTime = 0 s

scalarTransport execute: age
smoothSolver:  Solving for age, Initial residual = 0.101353, Final residual = 0.00888513, No Iterations 6

Time = 10

smoothSolver:  Solving for Ux, Initial residual = 0.0404825, Final residual = 0.00268301, No Iterations 6
smoothSolver:  Solving for Uy, Initial residual = 0.0247261, Final residual = 0.00167849, No Iterations 6
GAMG:  Solving for p, Initial residual = 0.0286021, Final residual = 0.00157742, No Iterations 2
time step continuity errors : sum local = 0.00586145, global = -0.000635312, cumulative = 0.0122309
smoothSolver:  Solving for omega, Initial residual = 0.0263432, Final residual = 0.00242232, No Iterations 5
smoothSolver:  Solving for k, Initial residual = 0.138898, Final residual = 0.00965796, No Iterations 6
ExecutionTime = 0.16 s  ClockTime = 0 s

scalarTransport execute: age
smoothSolver:  Solving for age, Initial residual = 0.0908573, Final residual = 0.00894838, No Iterations 6

Time = 11

smoothSolver:  Solving for Ux, Initial residual = 0.0387773, Final residual = 0.00262829, No Iterations 6
smoothSolver:  Solving for Uy, Initial residual = 0.0234039, Final residual = 0.00161286, No Iterations 6
GAMG:  Solving for p, Initial residual = 0.0254504, Final residual = 0.00127485, No Iterations 2
time step continuity errors : sum local = 0.00487333, global = -0.000579187, cumulative = 0.0116517
smoothSolver:  Solving for omega, Initial residual = 0.0220101, Final residual = 0.002063, No Iterations 5
smoothSolver:  Solving for k, Initial residual = 0.123588, Final residual = 0.00876383, No Iterations 6
ExecutionTime = 0.17 s  ClockTime = 0 s

scalarTransport execute: age
smoothSolver:  Solving for age, Initial residual = 0.0843577, Final residual = 0.00763611, No Iterations 7

Time = 12

smoothSolver:  Solving for Ux, Initial residual = 0.0371621, Final residual = 0.00254825, No Iterations 6
smoothSolver:  Solving for Uy, Initial residual = 0.0230852, Final residual = 0.00164395, No Iterations 6
GAMG:  Solving for p, Initial residual = 0.0238859, Final residual = 0.00150244, No Iterations 2
time step continuity errors : sum local = 0.00579912, global = -0.000458599, cumulative = 0.0111931
smoothSolver:  Solving for omega, Initial residual = 0.0186673, Final residual = 0.00177061, No Iterations 5
smoothSolver:  Solving for k, Initial residual = 0.111079, Final residual = 0.00800441, No Iterations 6
ExecutionTime = 0.18 s  ClockTime = 0 s

scalarTransport execute: age
smoothSolver:  Solving for age, Initial residual = 0.0804607, Final residual = 0.00773963, No Iterations 7

Time = 13

smoothSolver:  Solving for Ux, Initial residual = 0.0357692, Final residual = 0.00245644, No Iterations 6
smoothSolver:  Solving for Uy, Initial residual = 0.0230079, Final residual = 0.00167276, No Iterations 6
GAMG:  Solving for p, Initial residual = 0.0226617, Final residual = 0.00161003, No Iterations 2
time step continuity errors : sum local = 0.00622548, global = -0.000289867, cumulative = 0.0109033
smoothSolver:  Solving for omega, Initial residual = 0.0159597, Final residual = 0.00152864, No Iterations 5
smoothSolver:  Solving for k, Initial residual = 0.100703, Final residual = 0.00735339, No Iterations 6
ExecutionTime = 0.2 s  ClockTime = 0 s

scalarTransport execute: age
smoothSolver:  Solving for age, Initial residual = 0.0770104, Final residual = 0.00720848, No Iterations 7

Time = 14

smoothSolver:  Solving for Ux, Initial residual = 0.0346625, Final residual = 0.00237355, No Iterations 6
smoothSolver:  Solving for Uy, Initial residual = 0.0231325, Final residual = 0.0017056, No Iterations 6
GAMG:  Solving for p, Initial residual = 0.0217705, Final residual = 0.00158528, No Iterations 2
time step continuity errors : sum local = 0.0061262, global = -8.54323e-05, cumulative = 0.0108178
smoothSolver:  Solving for omega, Initial residual = 0.0137804, Final residual = 0.00132763, No Iterations 5
smoothSolver:  Solving for k, Initial residual = 0.0919426, Final residual = 0.00678767, No Iterations 6
ExecutionTime = 0.21 s  ClockTime = 0 s

scalarTransport execute: age
smoothSolver:  Solving for age, Initial residual = 0.0723351, Final residual = 0.00636027, No Iterations 7

Time = 15

smoothSolver:  Solving for Ux, Initial residual = 0.0337278, Final residual = 0.00230776, No Iterations 6
smoothSolver:  Solving for Uy, Initial residual = 0.0232687, Final residual = 0.00173254, No Iterations 6
GAMG:  Solving for p, Initial residual = 0.0209603, Final residual = 0.00151017, No Iterations 2
time step continuity errors : sum local = 0.00581732, global = 0.000123365, cumulative = 0.0109412
smoothSolver:  Solving for omega, Initial residual = 0.0120296, Final residual = 0.0011603, No Iterations 5
smoothSolver:  Solving for k, Initial residual = 0.0844544, Final residual = 0.00629205, No Iterations 6
ExecutionTime = 0.22 s  ClockTime = 1 s

scalarTransport execute: age
smoothSolver:  Solving for age, Initial residual = 0.0673593, Final residual = 0.00667998, No Iterations 6

Time = 16

smoothSolver:  Solving for Ux, Initial residual = 0.0328438, Final residual = 0.00225441, No Iterations 6
smoothSolver:  Solving for Uy, Initial residual = 0.0232912, Final residual = 0.00174579, No Iterations 6
GAMG:  Solving for p, Initial residual = 0.0203386, Final residual = 0.00142927, No Iterations 2
time step continuity errors : sum local = 0.005475, global = 0.000334572, cumulative = 0.0112758
smoothSolver:  Solving for omega, Initial residual = 0.0105964, Final residual = 0.00101965, No Iterations 5
smoothSolver:  Solving for k, Initial residual = 0.0780016, Final residual = 0.00585573, No Iterations 6
ExecutionTime = 0.23 s  ClockTime = 1 s

scalarTransport execute: age
smoothSolver:  Solving for age, Initial residual = 0.0616456, Final residual = 0.00591791, No Iterations 6

Time = 17

smoothSolver:  Solving for Ux, Initial residual = 0.0319479, Final residual = 0.00220443, No Iterations 6
smoothSolver:  Solving for Uy, Initial residual = 0.0232209, Final residual = 0.00174546, No Iterations 6
GAMG:  Solving for p, Initial residual = 0.0197742, Final residual = 0.00136743, No Iterations 2
time step continuity errors : sum local = 0.0052022, global = 0.000527718, cumulative = 0.0118035
smoothSolver:  Solving for omega, Initial residual = 0.00940954, Final residual = 0.000901451, No Iterations 5
smoothSolver:  Solving for k, Initial residual = 0.0723931, Final residual = 0.00546866, No Iterations 6
ExecutionTime = 0.24 s  ClockTime = 1 s

scalarTransport execute: age
smoothSolver:  Solving for age, Initial residual = 0.0564479, Final residual = 0.00542746, No Iterations 6

Time = 18

smoothSolver:  Solving for Ux, Initial residual = 0.0310873, Final residual = 0.00215502, No Iterations 6
smoothSolver:  Solving for Uy, Initial residual = 0.0230408, Final residual = 0.00173336, No Iterations 6
GAMG:  Solving for p, Initial residual = 0.0193681, Final residual = 0.00133895, No Iterations 2
time step continuity errors : sum local = 0.0050521, global = 0.000627262, cumulative = 0.0124308
smoothSolver:  Solving for omega, Initial residual = 0.00842138, Final residual = 0.00080171, No Iterations 5
smoothSolver:  Solving for k, Initial residual = 0.0674814, Final residual = 0.00512334, No Iterations 6
ExecutionTime = 0.26 s  ClockTime = 1 s

scalarTransport execute: age
smoothSolver:  Solving for age, Initial residual = 0.0521222, Final residual = 0.00518116, No Iterations 6

Time = 19

smoothSolver:  Solving for Ux, Initial residual = 0.0303372, Final residual = 0.00211295, No Iterations 6
smoothSolver:  Solving for Uy, Initial residual = 0.0228079, Final residual = 0.00171639, No Iterations 6
GAMG:  Solving for p, Initial residual = 0.0191842, Final residual = 0.00131518, No Iterations 2
time step continuity errors : sum local = 0.0049111, global = 0.000666785, cumulative = 0.0130975
smoothSolver:  Solving for omega, Initial residual = 0.007581, Final residual = 0.000717352, No Iterations 5
smoothSolver:  Solving for k, Initial residual = 0.0631626, Final residual = 0.0048145, No Iterations 6
ExecutionTime = 0.27 s  ClockTime = 1 s

scalarTransport execute: age
smoothSolver:  Solving for age, Initial residual = 0.0482347, Final residual = 0.00420826, No Iterations 7

Time = 20

smoothSolver:  Solving for Ux, Initial residual = 0.0295327, Final residual = 0.00206559, No Iterations 6
smoothSolver:  Solving for Uy, Initial residual = 0.0224261, Final residual = 0.00168821, No Iterations 6
GAMG:  Solving for p, Initial residual = 0.0190887, Final residual = 0.00133012, No Iterations 2
time step continuity errors : sum local = 0.00490923, global = 0.00066559, cumulative = 0.0137631
smoothSolver:  Solving for omega, Initial residual = 0.00688036, Final residual = 0.000645561, No Iterations 5
smoothSolver:  Solving for k, Initial residual = 0.0593293, Final residual = 0.00453563, No Iterations 6
ExecutionTime = 0.28 s  ClockTime = 1 s

scalarTransport execute: age
smoothSolver:  Solving for age, Initial residual = 0.0442948, Final residual = 0.00403753, No Iterations 7

Time = 21

smoothSolver:  Solving for Ux, Initial residual = 0.0286659, Final residual = 0.00201145, No Iterations 6
smoothSolver:  Solving for Uy, Initial residual = 0.0220147, Final residual = 0.00165667, No Iterations 6
GAMG:  Solving for p, Initial residual = 0.0189967, Final residual = 0.00136635, No Iterations 2
time step continuity errors : sum local = 0.00498705, global = 0.00064577, cumulative = 0.0144089
smoothSolver:  Solving for omega, Initial residual = 0.00627972, Final residual = 0.000584101, No Iterations 5
smoothSolver:  Solving for k, Initial residual = 0.0559082, Final residual = 0.00428236, No Iterations 6
ExecutionTime = 0.29 s  ClockTime = 1 s

scalarTransport execute: age
smoothSolver:  Solving for age, Initial residual = 0.040971, Final residual = 0.00388356, No Iterations 7

Time = 22

smoothSolver:  Solving for Ux, Initial residual = 0.027773, Final residual = 0.00195372, No Iterations 6
smoothSolver:  Solving for Uy, Initial residual = 0.0216169, Final residual = 0.00162635, No Iterations 6
GAMG:  Solving for p, Initial residual = 0.0187849, Final residual = 0.00140872, No Iterations 2
time step continuity errors : sum local = 0.0050894, global = 0.000619718, cumulative = 0.0150286
smoothSolver:  Solving for omega, Initial residual = 0.00576177, Final residual = 0.000531351, No Iterations 5
smoothSolver:  Solving for k, Initial residual = 0.0528375, Final residual = 0.00405109, No Iterations 6
ExecutionTime = 0.3 s  ClockTime = 1 s

scalarTransport execute: age
smoothSolver:  Solving for age, Initial residual = 0.0377124, Final residual = 0.00372318, No Iterations 7

Time = 23

smoothSolver:  Solving for Ux, Initial residual = 0.0269081, Final residual = 0.00189504, No Iterations 6
smoothSolver:  Solving for Uy, Initial residual = 0.0212531, Final residual = 0.00159765, No Iterations 6
GAMG:  Solving for p, Initial residual = 0.0183755, Final residual = 0.00143335, No Iterations 2
time step continuity errors : sum local = 0.0051307, global = 0.000595845, cumulative = 0.0156245
smoothSolver:  Solving for omega, Initial residual = 0.0053016, Final residual = 0.000485089, No Iterations 5
smoothSolver:  Solving for k, Initial residual = 0.0500622, Final residual = 0.00383903, No Iterations 6
ExecutionTime = 0.32 s  ClockTime = 1 s

scalarTransport execute: age
smoothSolver:  Solving for age, Initial residual = 0.0348179, Final residual = 0.00299453, No Iterations 8

Time = 24

smoothSolver:  Solving for Ux, Initial residual = 0.0260599, Final residual = 0.00183847, No Iterations 6
smoothSolver:  Solving for Uy, Initial residual = 0.0209041, Final residual = 0.00156918, No Iterations 6
GAMG:  Solving for p, Initial residual = 0.01779, Final residual = 0.00142524, No Iterations 2
time step continuity errors : sum local = 0.00505776, global = 0.000577897, cumulative = 0.0162024
smoothSolver:  Solving for omega, Initial residual = 0.00489447, Final residual = 0.000444674, No Iterations 5
smoothSolver:  Solving for k, Initial residual = 0.047532, Final residual = 0.00364309, No Iterations 6
ExecutionTime = 0.33 s  ClockTime = 1 s

scalarTransport execute: age
smoothSolver:  Solving for age, Initial residual = 0.0324065, Final residual = 0.00292658, No Iterations 8

Time = 25

smoothSolver:  Solving for Ux, Initial residual = 0.02521, Final residual = 0.00178418, No Iterations 6
smoothSolver:  Solving for Uy, Initial residual = 0.0205757, Final residual = 0.00153992, No Iterations 6
GAMG:  Solving for p, Initial residual = 0.0173873, Final residual = 0.00139099, No Iterations 2
time step continuity errors : sum local = 0.0048961, global = 0.000566529, cumulative = 0.0167689
smoothSolver:  Solving for omega, Initial residual = 0.00453064, Final residual = 0.000408792, No Iterations 5
smoothSolver:  Solving for k, Initial residual = 0.0452214, Final residual = 0.00346205, No Iterations 6
ExecutionTime = 0.34 s  ClockTime = 1 s

scalarTransport execute: age
smoothSolver:  Solving for age, Initial residual = 0.0302952, Final residual = 0.00285719, No Iterations 8

Time = 26

smoothSolver:  Solving for Ux, Initial residual = 0.0243769, Final residual = 0.00173108, No Iterations 6
smoothSolver:  Solving for Uy, Initial residual = 0.020262, Final residual = 0.00150979, No Iterations 6
GAMG:  Solving for p, Initial residual = 0.01728, Final residual = 0.00133347, No Iterations 2
time step continuity errors : sum local = 0.00465602, global = 0.00056055, cumulative = 0.0173294
smoothSolver:  Solving for omega, Initial residual = 0.00421058, Final residual = 0.000376786, No Iterations 5
smoothSolver:  Solving for k, Initial residual = 0.0430879, Final residual = 0.00329332, No Iterations 6
ExecutionTime = 0.35 s  ClockTime = 1 s

scalarTransport execute: age
smoothSolver:  Solving for age, Initial residual = 0.0287353, Final residual = 0.00278142, No Iterations 8

Time = 27

smoothSolver:  Solving for Ux, Initial residual = 0.0235775, Final residual = 0.00167922, No Iterations 6
smoothSolver:  Solving for Uy, Initial residual = 0.0199452, Final residual = 0.00147869, No Iterations 6
GAMG:  Solving for p, Initial residual = 0.0172515, Final residual = 0.00126996, No Iterations 2
time step continuity errors : sum local = 0.00439669, global = 0.000558114, cumulative = 0.0178876
smoothSolver:  Solving for omega, Initial residual = 0.00393093, Final residual = 0.000347729, No Iterations 5
smoothSolver:  Solving for k, Initial residual = 0.0410933, Final residual = 0.00313476, No Iterations 6
ExecutionTime = 0.36 s  ClockTime = 1 s

scalarTransport execute: age
smoothSolver:  Solving for age, Initial residual = 0.0274035, Final residual = 0.00270873, No Iterations 8

Time = 28

smoothSolver:  Solving for Ux, Initial residual = 0.0228219, Final residual = 0.00162736, No Iterations 6
smoothSolver:  Solving for Uy, Initial residual = 0.0196047, Final residual = 0.00144777, No Iterations 6
GAMG:  Solving for p, Initial residual = 0.0171689, Final residual = 0.001222, No Iterations 2
time step continuity errors : sum local = 0.00418458, global = 0.000550581, cumulative = 0.0184381
smoothSolver:  Solving for omega, Initial residual = 0.00368838, Final residual = 0.000321404, No Iterations 5
smoothSolver:  Solving for k, Initial residual = 0.0392106, Final residual = 0.00298421, No Iterations 6
ExecutionTime = 0.37 s  ClockTime = 1 s

scalarTransport execute: age
smoothSolver:  Solving for age, Initial residual = 0.0265066, Final residual = 0.00231658, No Iterations 9

Time = 29

smoothSolver:  Solving for Ux, Initial residual = 0.0220953, Final residual = 0.00157434, No Iterations 6
smoothSolver:  Solving for Uy, Initial residual = 0.0192442, Final residual = 0.00141728, No Iterations 6
GAMG:  Solving for p, Initial residual = 0.0171244, Final residual = 0.00119026, No Iterations 2
time step continuity errors : sum local = 0.00403334, global = 0.000546798, cumulative = 0.0189849
smoothSolver:  Solving for omega, Initial residual = 0.00347799, Final residual = 0.000297587, No Iterations 5
smoothSolver:  Solving for k, Initial residual = 0.0374305, Final residual = 0.00284141, No Iterations 6
ExecutionTime = 0.39 s  ClockTime = 1 s

scalarTransport execute: age
smoothSolver:  Solving for age, Initial residual = 0.0257969, Final residual = 0.00228658, No Iterations 9

Time = 30

smoothSolver:  Solving for Ux, Initial residual = 0.0213751, Final residual = 0.00151987, No Iterations 6
smoothSolver:  Solving for Uy, Initial residual = 0.0188829, Final residual = 0.00138749, No Iterations 6
GAMG:  Solving for p, Initial residual = 0.0168355, Final residual = 0.00115265, No Iterations 2
time step continuity errors : sum local = 0.00385876, global = 0.000546725, cumulative = 0.0195317
smoothSolver:  Solving for omega, Initial residual = 0.00328935, Final residual = 0.000276089, No Iterations 5
smoothSolver:  Solving for k, Initial residual = 0.0357423, Final residual = 0.00270604, No Iterations 6
ExecutionTime = 0.4 s  ClockTime = 1 s

scalarTransport execute: age
smoothSolver:  Solving for age, Initial residual = 0.0252269, Final residual = 0.00226676, No Iterations 9

Time = 31

smoothSolver:  Solving for Ux, Initial residual = 0.0206423, Final residual = 0.00146373, No Iterations 6
smoothSolver:  Solving for Uy, Initial residual = 0.0185376, Final residual = 0.00135905, No Iterations 6
GAMG:  Solving for p, Initial residual = 0.0163272, Final residual = 0.00110429, No Iterations 2
time step continuity errors : sum local = 0.00364678, global = 0.0005464, cumulative = 0.0200781
smoothSolver:  Solving for omega, Initial residual = 0.00312423, Final residual = 0.000256705, No Iterations 5
smoothSolver:  Solving for k, Initial residual = 0.0341512, Final residual = 0.00257824, No Iterations 6
ExecutionTime = 0.41 s  ClockTime = 1 s

scalarTransport execute: age
smoothSolver:  Solving for age, Initial residual = 0.0248051, Final residual = 0.00230481, No Iterations 9

Time = 32

smoothSolver:  Solving for Ux, Initial residual = 0.0198972, Final residual = 0.00140616, No Iterations 6
smoothSolver:  Solving for Uy, Initial residual = 0.0182122, Final residual = 0.00133261, No Iterations 6
GAMG:  Solving for p, Initial residual = 0.015778, Final residual = 0.00105007, No Iterations 2
time step continuity errors : sum local = 0.00342119, global = 0.000541058, cumulative = 0.0206191
smoothSolver:  Solving for omega, Initial residual = 0.00298155, Final residual = 0.000239279, No Iterations 5
smoothSolver:  Solving for k, Initial residual = 0.0326573, Final residual = 0.00245808, No Iterations 6
ExecutionTime = 0.42 s  ClockTime = 1 s

scalarTransport execute: age
smoothSolver:  Solving for age, Initial residual = 0.0244062, Final residual = 0.00237024, No Iterations 9

Time = 33

smoothSolver:  Solving for Ux, Initial residual = 0.0191345, Final residual = 0.00134797, No Iterations 6
smoothSolver:  Solving for Uy, Initial residual = 0.0179216, Final residual = 0.00130821, No Iterations 6
GAMG:  Solving for p, Initial residual = 0.0152451, Final residual = 0.00100473, No Iterations 2
time step continuity errors : sum local = 0.00323181, global = 0.000531304, cumulative = 0.0211504
smoothSolver:  Solving for omega, Initial residual = 0.00285716, Final residual = 0.000223701, No Iterations 5
smoothSolver:  Solving for k, Initial residual = 0.0312724, Final residual = 0.00234638, No Iterations 6
ExecutionTime = 0.43 s  ClockTime = 1 s

scalarTransport execute: age
smoothSolver:  Solving for age, Initial residual = 0.0241257, Final residual = 0.00208255, No Iterations 10

Time = 34

smoothSolver:  Solving for Ux, Initial residual = 0.0183615, Final residual = 0.00128922, No Iterations 6
smoothSolver:  Solving for Uy, Initial residual = 0.0177173, Final residual = 0.0012865, No Iterations 6
GAMG:  Solving for p, Initial residual = 0.0147202, Final residual = 0.000987847, No Iterations 2
time step continuity errors : sum local = 0.00312771, global = 0.000523129, cumulative = 0.0216735
smoothSolver:  Solving for omega, Initial residual = 0.00274837, Final residual = 0.000209884, No Iterations 5
smoothSolver:  Solving for k, Initial residual = 0.0299975, Final residual = 0.00224238, No Iterations 6
ExecutionTime = 0.45 s  ClockTime = 1 s

scalarTransport execute: age
smoothSolver:  Solving for age, Initial residual = 0.0238461, Final residual = 0.00215781, No Iterations 10

Time = 35

smoothSolver:  Solving for Ux, Initial residual = 0.0175954, Final residual = 0.00123106, No Iterations 6
smoothSolver:  Solving for Uy, Initial residual = 0.0175502, Final residual = 0.00126548, No Iterations 6
GAMG:  Solving for p, Initial residual = 0.0143049, Final residual = 0.00100223, No Iterations 2
time step continuity errors : sum local = 0.0031182, global = 0.000521408, cumulative = 0.022195
smoothSolver:  Solving for omega, Initial residual = 0.00265367, Final residual = 0.000197613, No Iterations 5
smoothSolver:  Solving for k, Initial residual = 0.0288269, Final residual = 0.00214544, No Iterations 6
ExecutionTime = 0.46 s  ClockTime = 1 s

scalarTransport execute: age
smoothSolver:  Solving for age, Initial residual = 0.0238133, Final residual = 0.00226227, No Iterations 10

Time = 36

smoothSolver:  Solving for Ux, Initial residual = 0.0168579, Final residual = 0.00117372, No Iterations 6
smoothSolver:  Solving for Uy, Initial residual = 0.0173594, Final residual = 0.00124244, No Iterations 6
GAMG:  Solving for p, Initial residual = 0.0140151, Final residual = 0.00104691, No Iterations 2
time step continuity errors : sum local = 0.00319915, global = 0.000526641, cumulative = 0.0227216
smoothSolver:  Solving for omega, Initial residual = 0.00257253, Final residual = 0.000186517, No Iterations 5
smoothSolver:  Solving for k, Initial residual = 0.0277539, Final residual = 0.00205515, No Iterations 6
ExecutionTime = 0.47 s  ClockTime = 1 s

scalarTransport execute: age
smoothSolver:  Solving for age, Initial residual = 0.0238834, Final residual = 0.00208546, No Iterations 11

Time = 37

smoothSolver:  Solving for Ux, Initial residual = 0.0161507, Final residual = 0.00111799, No Iterations 6
smoothSolver:  Solving for Uy, Initial residual = 0.0171041, Final residual = 0.00121595, No Iterations 6
GAMG:  Solving for p, Initial residual = 0.0138576, Final residual = 0.0011076, No Iterations 2
time step continuity errors : sum local = 0.00332135, global = 0.000536187, cumulative = 0.0232578
smoothSolver:  Solving for omega, Initial residual = 0.00249815, Final residual = 0.000176162, No Iterations 5
smoothSolver:  Solving for k, Initial residual = 0.026763, Final residual = 0.00197022, No Iterations 6
ExecutionTime = 0.48 s  ClockTime = 1 s

scalarTransport execute: age
smoothSolver:  Solving for age, Initial residual = 0.0242049, Final residual = 0.002223, No Iterations 11

Time = 38

smoothSolver:  Solving for Ux, Initial residual = 0.0154728, Final residual = 0.00106432, No Iterations 6
smoothSolver:  Solving for Uy, Initial residual = 0.016788, Final residual = 0.00118402, No Iterations 6
GAMG:  Solving for p, Initial residual = 0.0138195, Final residual = 0.00116207, No Iterations 2
time step continuity errors : sum local = 0.00341881, global = 0.000547086, cumulative = 0.0238049
smoothSolver:  Solving for omega, Initial residual = 0.00242656, Final residual = 0.000166473, No Iterations 5
smoothSolver:  Solving for k, Initial residual = 0.0258374, Final residual = 0.00188957, No Iterations 6
ExecutionTime = 0.5 s  ClockTime = 1 s

scalarTransport execute: age
smoothSolver:  Solving for age, Initial residual = 0.02464, Final residual = 0.00239835, No Iterations 11

Time = 39

smoothSolver:  Solving for Ux, Initial residual = 0.0148236, Final residual = 0.00101266, No Iterations 6
smoothSolver:  Solving for Uy, Initial residual = 0.0163897, Final residual = 0.00114654, No Iterations 6
GAMG:  Solving for p, Initial residual = 0.0138316, Final residual = 0.00121754, No Iterations 2
time step continuity errors : sum local = 0.0035096, global = 0.000560008, cumulative = 0.0243649
smoothSolver:  Solving for omega, Initial residual = 0.00235619, Final residual = 0.000157244, No Iterations 5
smoothSolver:  Solving for k, Initial residual = 0.0249591, Final residual = 0.00181256, No Iterations 6
ExecutionTime = 0.51 s  ClockTime = 1 s

scalarTransport execute: age
smoothSolver:  Solving for age, Initial residual = 0.024615, Final residual = 0.00218723, No Iterations 12

Time = 40

smoothSolver:  Solving for Ux, Initial residual = 0.0141944, Final residual = 0.000962608, No Iterations 6
smoothSolver:  Solving for Uy, Initial residual = 0.0159125, Final residual = 0.00110471, No Iterations 6
GAMG:  Solving for p, Initial residual = 0.0138283, Final residual = 0.0012629, No Iterations 2
time step continuity errors : sum local = 0.00356262, global = 0.000568306, cumulative = 0.0249332
smoothSolver:  Solving for omega, Initial residual = 0.00228055, Final residual = 0.0001484, No Iterations 5
smoothSolver:  Solving for k, Initial residual = 0.0241153, Final residual = 0.00173853, No Iterations 6
ExecutionTime = 0.52 s  ClockTime = 1 s

scalarTransport execute: age
smoothSolver:  Solving for age, Initial residual = 0.0241613, Final residual = 0.00219717, No Iterations 12

Time = 41

smoothSolver:  Solving for Ux, Initial residual = 0.0135919, Final residual = 0.000914289, No Iterations 6
smoothSolver:  Solving for Uy, Initial residual = 0.0153821, Final residual = 0.00106053, No Iterations 6
GAMG:  Solving for p, Initial residual = 0.0137794, Final residual = 0.00127629, No Iterations 2
time step continuity errors : sum local = 0.00352004, global = 0.000574498, cumulative = 0.0255077
smoothSolver:  Solving for omega, Initial residual = 0.00220441, Final residual = 0.000139979, No Iterations 5
smoothSolver:  Solving for k, Initial residual = 0.0232984, Final residual = 0.00166764, No Iterations 6
ExecutionTime = 0.53 s  ClockTime = 1 s

scalarTransport execute: age
smoothSolver:  Solving for age, Initial residual = 0.0232248, Final residual = 0.00215423, No Iterations 12

Time = 42

smoothSolver:  Solving for Ux, Initial residual = 0.0130316, Final residual = 0.00086857, No Iterations 6
smoothSolver:  Solving for Uy, Initial residual = 0.0148036, Final residual = 0.00101502, No Iterations 6
GAMG:  Solving for p, Initial residual = 0.0136761, Final residual = 0.0012815, No Iterations 2
time step continuity errors : sum local = 0.00345469, global = 0.000564233, cumulative = 0.0260719
smoothSolver:  Solving for omega, Initial residual = 0.00212592, Final residual = 0.000132095, No Iterations 5
smoothSolver:  Solving for k, Initial residual = 0.0225062, Final residual = 0.00160033, No Iterations 6
ExecutionTime = 0.56 s  ClockTime = 1 s

scalarTransport execute: age
smoothSolver:  Solving for age, Initial residual = 0.0222624, Final residual = 0.0020618, No Iterations 12

Time = 43

smoothSolver:  Solving for Ux, Initial residual = 0.0125194, Final residual = 0.00082615, No Iterations 6
smoothSolver:  Solving for Uy, Initial residual = 0.0142026, Final residual = 0.000968884, No Iterations 6
GAMG:  Solving for p, Initial residual = 0.0135831, Final residual = 0.00130325, No Iterations 2
time step continuity errors : sum local = 0.00343409, global = 0.000568304, cumulative = 0.0266402
smoothSolver:  Solving for omega, Initial residual = 0.00205378, Final residual = 0.000202775, No Iterations 4
smoothSolver:  Solving for k, Initial residual = 0.0217549, Final residual = 0.00153808, No Iterations 6
ExecutionTime = 0.57 s  ClockTime = 1 s

scalarTransport execute: age
smoothSolver:  Solving for age, Initial residual = 0.0214058, Final residual = 0.00192419, No Iterations 12

Time = 44

smoothSolver:  Solving for Ux, Initial residual = 0.0120469, Final residual = 0.000786738, No Iterations 6
smoothSolver:  Solving for Uy, Initial residual = 0.0136102, Final residual = 0.000923907, No Iterations 6
GAMG:  Solving for p, Initial residual = 0.0135014, Final residual = 0.00130422, No Iterations 2
time step continuity errors : sum local = 0.0033648, global = 0.00052787, cumulative = 0.0271681
smoothSolver:  Solving for omega, Initial residual = 0.00199728, Final residual = 0.000194455, No Iterations 4
smoothSolver:  Solving for k, Initial residual = 0.0210418, Final residual = 0.00148034, No Iterations 6
ExecutionTime = 0.58 s  ClockTime = 1 s

scalarTransport execute: age
smoothSolver:  Solving for age, Initial residual = 0.0207012, Final residual = 0.00182257, No Iterations 12

Time = 45

smoothSolver:  Solving for Ux, Initial residual = 0.0116482, Final residual = 0.00115667, No Iterations 5
smoothSolver:  Solving for Uy, Initial residual = 0.0130799, Final residual = 0.000881662, No Iterations 6
GAMG:  Solving for p, Initial residual = 0.0134767, Final residual = 0.00124909, No Iterations 2
time step continuity errors : sum local = 0.00314406, global = 0.000523907, cumulative = 0.027692
smoothSolver:  Solving for omega, Initial residual = 0.0019516, Final residual = 0.000186546, No Iterations 4
smoothSolver:  Solving for k, Initial residual = 0.0203573, Final residual = 0.00142643, No Iterations 6
ExecutionTime = 0.59 s  ClockTime = 1 s

scalarTransport execute: age
smoothSolver:  Solving for age, Initial residual = 0.0198234, Final residual = 0.00174614, No Iterations 12

Time = 46

smoothSolver:  Solving for Ux, Initial residual = 0.0113481, Final residual = 0.00111684, No Iterations 5
smoothSolver:  Solving for Uy, Initial residual = 0.0124349, Final residual = 0.000833381, No Iterations 6
GAMG:  Solving for p, Initial residual = 0.0135179, Final residual = 0.00124799, No Iterations 2
time step continuity errors : sum local = 0.00306969, global = 0.000492457, cumulative = 0.0281845
smoothSolver:  Solving for omega, Initial residual = 0.0019043, Final residual = 0.000179361, No Iterations 4
smoothSolver:  Solving for k, Initial residual = 0.0197024, Final residual = 0.00137627, No Iterations 6
ExecutionTime = 0.6 s  ClockTime = 1 s

scalarTransport execute: age
smoothSolver:  Solving for age, Initial residual = 0.0189918, Final residual = 0.0016953, No Iterations 12

Time = 47

smoothSolver:  Solving for Ux, Initial residual = 0.010994, Final residual = 0.00107228, No Iterations 5
smoothSolver:  Solving for Uy, Initial residual = 0.0119054, Final residual = 0.000794571, No Iterations 6
GAMG:  Solving for p, Initial residual = 0.0135364, Final residual = 0.00124658, No Iterations 2
time step continuity errors : sum local = 0.00299792, global = 0.00046827, cumulative = 0.0286527
smoothSolver:  Solving for omega, Initial residual = 0.00185998, Final residual = 0.000172858, No Iterations 4
smoothSolver:  Solving for k, Initial residual = 0.019082, Final residual = 0.00132958, No Iterations 6
ExecutionTime = 0.61 s  ClockTime = 1 s

scalarTransport execute: age
smoothSolver:  Solving for age, Initial residual = 0.0183561, Final residual = 0.00164802, No Iterations 12

Time = 48

smoothSolver:  Solving for Ux, Initial residual = 0.0106525, Final residual = 0.00102803, No Iterations 5
smoothSolver:  Solving for Uy, Initial residual = 0.0114075, Final residual = 0.000757888, No Iterations 6
GAMG:  Solving for p, Initial residual = 0.0135778, Final residual = 0.0012679, No Iterations 2
time step continuity errors : sum local = 0.0029789, global = 0.000438501, cumulative = 0.0290912
smoothSolver:  Solving for omega, Initial residual = 0.00181027, Final residual = 0.000166844, No Iterations 4
smoothSolver:  Solving for k, Initial residual = 0.0184943, Final residual = 0.00128591, No Iterations 6
ExecutionTime = 0.63 s  ClockTime = 1 s

scalarTransport execute: age
smoothSolver:  Solving for age, Initial residual = 0.0176603, Final residual = 0.0016174, No Iterations 12

Time = 49

smoothSolver:  Solving for Ux, Initial residual = 0.0102866, Final residual = 0.000983531, No Iterations 5
smoothSolver:  Solving for Uy, Initial residual = 0.010949, Final residual = 0.000724319, No Iterations 6
GAMG:  Solving for p, Initial residual = 0.0135513, Final residual = 0.00125999, No Iterations 2
time step continuity errors : sum local = 0.00288866, global = 0.000403833, cumulative = 0.0294951
smoothSolver:  Solving for omega, Initial residual = 0.00176013, Final residual = 0.000161213, No Iterations 4
smoothSolver:  Solving for k, Initial residual = 0.0179405, Final residual = 0.00124475, No Iterations 6
ExecutionTime = 0.64 s  ClockTime = 1 s

scalarTransport execute: age
smoothSolver:  Solving for age, Initial residual = 0.0169041, Final residual = 0.00157362, No Iterations 12

Time = 50

smoothSolver:  Solving for Ux, Initial residual = 0.00991259, Final residual = 0.00094006, No Iterations 5
smoothSolver:  Solving for Uy, Initial residual = 0.0105353, Final residual = 0.000692678, No Iterations 6
GAMG:  Solving for p, Initial residual = 0.0134912, Final residual = 0.00126568, No Iterations 2
time step continuity errors : sum local = 0.00283183, global = 0.000363549, cumulative = 0.0298586
smoothSolver:  Solving for omega, Initial residual = 0.00170793, Final residual = 0.000155654, No Iterations 4
smoothSolver:  Solving for k, Initial residual = 0.0174244, Final residual = 0.00120568, No Iterations 6
ExecutionTime = 0.65 s  ClockTime = 1 s

scalarTransport execute: age
smoothSolver:  Solving for age, Initial residual = 0.01615, Final residual = 0.00151618, No Iterations 12

Time = 51

smoothSolver:  Solving for Ux, Initial residual = 0.00952576, Final residual = 0.000897136, No Iterations 5
smoothSolver:  Solving for Uy, Initial residual = 0.0101581, Final residual = 0.000662513, No Iterations 6
GAMG:  Solving for p, Initial residual = 0.0133454, Final residual = 0.00125481, No Iterations 2
time step continuity errors : sum local = 0.00274013, global = 0.000320278, cumulative = 0.0301789
smoothSolver:  Solving for omega, Initial residual = 0.00166064, Final residual = 0.0001501, No Iterations 4
smoothSolver:  Solving for k, Initial residual = 0.0169386, Final residual = 0.00116823, No Iterations 6
ExecutionTime = 0.66 s  ClockTime = 1 s

scalarTransport execute: age
smoothSolver:  Solving for age, Initial residual = 0.0154458, Final residual = 0.00145543, No Iterations 12

Time = 52

smoothSolver:  Solving for Ux, Initial residual = 0.00914872, Final residual = 0.000855512, No Iterations 5
smoothSolver:  Solving for Uy, Initial residual = 0.00981377, Final residual = 0.00097678, No Iterations 5
GAMG:  Solving for p, Initial residual = 0.0131913, Final residual = 0.00126374, No Iterations 2
time step continuity errors : sum local = 0.00269505, global = 0.000272226, cumulative = 0.0304511
smoothSolver:  Solving for omega, Initial residual = 0.00161241, Final residual = 0.000144578, No Iterations 4
smoothSolver:  Solving for k, Initial residual = 0.0164756, Final residual = 0.00113201, No Iterations 6
ExecutionTime = 0.67 s  ClockTime = 1 s

scalarTransport execute: age
smoothSolver:  Solving for age, Initial residual = 0.0146726, Final residual = 0.0013958, No Iterations 12

Time = 53

smoothSolver:  Solving for Ux, Initial residual = 0.00872579, Final residual = 0.000810314, No Iterations 5
smoothSolver:  Solving for Uy, Initial residual = 0.0095348, Final residual = 0.000945548, No Iterations 5
GAMG:  Solving for p, Initial residual = 0.0129495, Final residual = 0.00125221, No Iterations 2
time step continuity errors : sum local = 0.00261166, global = 0.000228865, cumulative = 0.03068
smoothSolver:  Solving for omega, Initial residual = 0.00156006, Final residual = 0.000139248, No Iterations 4
smoothSolver:  Solving for k, Initial residual = 0.0160317, Final residual = 0.00109692, No Iterations 6
ExecutionTime = 0.68 s  ClockTime = 1 s

scalarTransport execute: age
smoothSolver:  Solving for age, Initial residual = 0.0139924, Final residual = 0.00133601, No Iterations 12

Time = 54

smoothSolver:  Solving for Ux, Initial residual = 0.00834837, Final residual = 0.000770437, No Iterations 5
smoothSolver:  Solving for Uy, Initial residual = 0.00922378, Final residual = 0.000909622, No Iterations 5
GAMG:  Solving for p, Initial residual = 0.0128441, Final residual = 0.0012415, No Iterations 2
time step continuity errors : sum local = 0.0025374, global = 0.00019071, cumulative = 0.0308707
smoothSolver:  Solving for omega, Initial residual = 0.00150542, Final residual = 0.000134318, No Iterations 4
smoothSolver:  Solving for k, Initial residual = 0.0155976, Final residual = 0.00106297, No Iterations 6
ExecutionTime = 0.7 s  ClockTime = 1 s

scalarTransport execute: age
smoothSolver:  Solving for age, Initial residual = 0.0132021, Final residual = 0.00127718, No Iterations 12

Time = 55

smoothSolver:  Solving for Ux, Initial residual = 0.00799768, Final residual = 0.000733187, No Iterations 5
smoothSolver:  Solving for Uy, Initial residual = 0.00889072, Final residual = 0.000872323, No Iterations 5
GAMG:  Solving for p, Initial residual = 0.0127492, Final residual = 0.0012664, No Iterations 2
time step continuity errors : sum local = 0.00253965, global = 0.000164654, cumulative = 0.0310353
smoothSolver:  Solving for omega, Initial residual = 0.00145925, Final residual = 0.000129715, No Iterations 4
smoothSolver:  Solving for k, Initial residual = 0.0151702, Final residual = 0.00103008, No Iterations 6
ExecutionTime = 0.71 s  ClockTime = 1 s

scalarTransport execute: age
smoothSolver:  Solving for age, Initial residual = 0.0125417, Final residual = 0.00122202, No Iterations 12

Time = 56

smoothSolver:  Solving for Ux, Initial residual = 0.00766624, Final residual = 0.000698317, No Iterations 5
smoothSolver:  Solving for Uy, Initial residual = 0.00854932, Final residual = 0.000834091, No Iterations 5
GAMG:  Solving for p, Initial residual = 0.0126514, Final residual = 0.000617448, No Iterations 3
time step continuity errors : sum local = 0.00121781, global = 9.6589e-05, cumulative = 0.0311319
smoothSolver:  Solving for omega, Initial residual = 0.00142691, Final residual = 0.000126074, No Iterations 4
smoothSolver:  Solving for k, Initial residual = 0.0147693, Final residual = 0.000999152, No Iterations 6
ExecutionTime = 0.72 s  ClockTime = 1 s

scalarTransport execute: age
smoothSolver:  Solving for age, Initial residual = 0.0120102, Final residual = 0.00117084, No Iterations 12

Time = 57

smoothSolver:  Solving for Ux, Initial residual = 0.00747154, Final residual = 0.000661605, No Iterations 5
smoothSolver:  Solving for Uy, Initial residual = 0.0083639, Final residual = 0.000805766, No Iterations 5
GAMG:  Solving for p, Initial residual = 0.0126404, Final residual = 0.00116303, No Iterations 2
time step continuity errors : sum local = 0.00223288, global = 6.88712e-05, cumulative = 0.0312008
smoothSolver:  Solving for omega, Initial residual = 0.00143381, Final residual = 0.00012142, No Iterations 4
smoothSolver:  Solving for k, Initial residual = 0.0143443, Final residual = 0.000967507, No Iterations 6
ExecutionTime = 0.73 s  ClockTime = 1 s

scalarTransport execute: age
smoothSolver:  Solving for age, Initial residual = 0.0115364, Final residual = 0.00112428, No Iterations 12

Time = 58

smoothSolver:  Solving for Ux, Initial residual = 0.00708676, Final residual = 0.000635046, No Iterations 5
smoothSolver:  Solving for Uy, Initial residual = 0.00794003, Final residual = 0.000764213, No Iterations 5
GAMG:  Solving for p, Initial residual = 0.0128531, Final residual = 0.000544863, No Iterations 3
time step continuity errors : sum local = 0.00103888, global = 6.15424e-05, cumulative = 0.0312623
smoothSolver:  Solving for omega, Initial residual = 0.00142239, Final residual = 0.00011774, No Iterations 4
smoothSolver:  Solving for k, Initial residual = 0.0139456, Final residual = 0.000937697, No Iterations 6
ExecutionTime = 0.74 s  ClockTime = 1 s

scalarTransport execute: age
smoothSolver:  Solving for age, Initial residual = 0.0110329, Final residual = 0.00108726, No Iterations 12

Time = 59

smoothSolver:  Solving for Ux, Initial residual = 0.00692867, Final residual = 0.000604907, No Iterations 5
smoothSolver:  Solving for Uy, Initial residual = 0.0076631, Final residual = 0.000722228, No Iterations 5
GAMG:  Solving for p, Initial residual = 0.0121496, Final residual = 0.0011239, No Iterations 2
time step continuity errors : sum local = 0.00210892, global = 3.5012e-05, cumulative = 0.0312974
smoothSolver:  Solving for omega, Initial residual = 0.00138655, Final residual = 0.000113761, No Iterations 4
smoothSolver:  Solving for k, Initial residual = 0.0134992, Final residual = 0.000907367, No Iterations 6
ExecutionTime = 0.75 s  ClockTime = 1 s

scalarTransport execute: age
smoothSolver:  Solving for age, Initial residual = 0.0105114, Final residual = 0.00092993, No Iterations 13

Time = 60

smoothSolver:  Solving for Ux, Initial residual = 0.00660098, Final residual = 0.00057936, No Iterations 5
smoothSolver:  Solving for Uy, Initial residual = 0.00726787, Final residual = 0.000685823, No Iterations 5
GAMG:  Solving for p, Initial residual = 0.0123708, Final residual = 0.000550607, No Iterations 3
time step continuity errors : sum local = 0.00102288, global = 6.21291e-05, cumulative = 0.0313595
smoothSolver:  Solving for omega, Initial residual = 0.00139048, Final residual = 0.000110479, No Iterations 4
smoothSolver:  Solving for k, Initial residual = 0.0130674, Final residual = 0.000878307, No Iterations 6
ExecutionTime = 0.77 s  ClockTime = 1 s

scalarTransport execute: age
smoothSolver:  Solving for age, Initial residual = 0.0100765, Final residual = 0.000905878, No Iterations 13

Time = 61

smoothSolver:  Solving for Ux, Initial residual = 0.00644166, Final residual = 0.000547881, No Iterations 5
smoothSolver:  Solving for Uy, Initial residual = 0.00699313, Final residual = 0.000646414, No Iterations 5
GAMG:  Solving for p, Initial residual = 0.0119419, Final residual = 0.00111334, No Iterations 2
time step continuity errors : sum local = 0.00203241, global = 3.72259e-05, cumulative = 0.0313967
smoothSolver:  Solving for omega, Initial residual = 0.0013484, Final residual = 0.000106806, No Iterations 4
smoothSolver:  Solving for k, Initial residual = 0.0126058, Final residual = 0.000849367, No Iterations 6
ExecutionTime = 0.78 s  ClockTime = 1 s

scalarTransport execute: age
smoothSolver:  Solving for age, Initial residual = 0.00962224, Final residual = 0.000887192, No Iterations 13

Time = 62

smoothSolver:  Solving for Ux, Initial residual = 0.00614681, Final residual = 0.000525522, No Iterations 5
smoothSolver:  Solving for Uy, Initial residual = 0.00660038, Final residual = 0.000611049, No Iterations 5
GAMG:  Solving for p, Initial residual = 0.0123192, Final residual = 0.00122828, No Iterations 2
time step continuity errors : sum local = 0.00221655, global = 3.69664e-05, cumulative = 0.0314337
smoothSolver:  Solving for omega, Initial residual = 0.00134787, Final residual = 0.000103472, No Iterations 4
smoothSolver:  Solving for k, Initial residual = 0.0121445, Final residual = 0.000821139, No Iterations 6
ExecutionTime = 0.79 s  ClockTime = 1 s

scalarTransport execute: age
smoothSolver:  Solving for age, Initial residual = 0.00926891, Final residual = 0.000870858, No Iterations 13

Time = 63

smoothSolver:  Solving for Ux, Initial residual = 0.00596846, Final residual = 0.000504656, No Iterations 5
smoothSolver:  Solving for Uy, Initial residual = 0.00623371, Final residual = 0.000568212, No Iterations 5
GAMG:  Solving for p, Initial residual = 0.0120701, Final residual = 0.000550678, No Iterations 3
time step continuity errors : sum local = 0.000982409, global = 5.79665e-05, cumulative = 0.0314916
smoothSolver:  Solving for omega, Initial residual = 0.00130598, Final residual = 0.000100896, No Iterations 4
smoothSolver:  Solving for k, Initial residual = 0.011701, Final residual = 0.000793761, No Iterations 6
ExecutionTime = 0.8 s  ClockTime = 1 s

scalarTransport execute: age
smoothSolver:  Solving for age, Initial residual = 0.00892571, Final residual = 0.000862434, No Iterations 13

Time = 64

smoothSolver:  Solving for Ux, Initial residual = 0.00578977, Final residual = 0.000471794, No Iterations 5
smoothSolver:  Solving for Uy, Initial residual = 0.00594183, Final residual = 0.000531818, No Iterations 5
GAMG:  Solving for p, Initial residual = 0.0116649, Final residual = 0.00107558, No Iterations 2
time step continuity errors : sum local = 0.00188327, global = 2.65796e-05, cumulative = 0.0315182
smoothSolver:  Solving for omega, Initial residual = 0.00125324, Final residual = 9.77104e-05, No Iterations 4
smoothSolver:  Solving for k, Initial residual = 0.0112453, Final residual = 0.000766803, No Iterations 6
ExecutionTime = 0.81 s  ClockTime = 1 s

scalarTransport execute: age
smoothSolver:  Solving for age, Initial residual = 0.00855612, Final residual = 0.000853098, No Iterations 13

Time = 65

smoothSolver:  Solving for Ux, Initial residual = 0.00552072, Final residual = 0.000454335, No Iterations 5
smoothSolver:  Solving for Uy, Initial residual = 0.00559703, Final residual = 0.000502822, No Iterations 5
GAMG:  Solving for p, Initial residual = 0.0121908, Final residual = 0.00117027, No Iterations 2
time step continuity errors : sum local = 0.00203094, global = 4.12865e-06, cumulative = 0.0315224
smoothSolver:  Solving for omega, Initial residual = 0.001246, Final residual = 9.5208e-05, No Iterations 4
smoothSolver:  Solving for k, Initial residual = 0.0107956, Final residual = 0.000740102, No Iterations 6
ExecutionTime = 0.83 s  ClockTime = 1 s

scalarTransport execute: age
smoothSolver:  Solving for age, Initial residual = 0.00828835, Final residual = 0.000745963, No Iterations 14

Time = 66

smoothSolver:  Solving for Ux, Initial residual = 0.00535879, Final residual = 0.000439277, No Iterations 5
smoothSolver:  Solving for Uy, Initial residual = 0.00528062, Final residual = 0.000466771, No Iterations 5
GAMG:  Solving for p, Initial residual = 0.0117819, Final residual = 0.00114201, No Iterations 2
time step continuity errors : sum local = 0.00196832, global = -8.9663e-06, cumulative = 0.0315134
smoothSolver:  Solving for omega, Initial residual = 0.0011986, Final residual = 9.28667e-05, No Iterations 4
smoothSolver:  Solving for k, Initial residual = 0.0103515, Final residual = 0.000713788, No Iterations 6
ExecutionTime = 0.84 s  ClockTime = 1 s

scalarTransport execute: age
smoothSolver:  Solving for age, Initial residual = 0.00801134, Final residual = 0.000739196, No Iterations 14

Time = 67

smoothSolver:  Solving for Ux, Initial residual = 0.00512836, Final residual = 0.000418571, No Iterations 5
smoothSolver:  Solving for Uy, Initial residual = 0.00497896, Final residual = 0.000437564, No Iterations 5
GAMG:  Solving for p, Initial residual = 0.0114319, Final residual = 0.00109081, No Iterations 2
time step continuity errors : sum local = 0.00186589, global = -2.07804e-05, cumulative = 0.0314926
smoothSolver:  Solving for omega, Initial residual = 0.00111444, Final residual = 9.00488e-05, No Iterations 4
smoothSolver:  Solving for k, Initial residual = 0.00992366, Final residual = 0.000687877, No Iterations 6
ExecutionTime = 0.85 s  ClockTime = 1 s

scalarTransport execute: age
smoothSolver:  Solving for age, Initial residual = 0.0077378, Final residual = 0.000733404, No Iterations 14

Time = 68

smoothSolver:  Solving for Ux, Initial residual = 0.00489598, Final residual = 0.000395843, No Iterations 5
smoothSolver:  Solving for Uy, Initial residual = 0.00473396, Final residual = 0.000415624, No Iterations 5
GAMG:  Solving for p, Initial residual = 0.0112599, Final residual = 0.0010375, No Iterations 2
time step continuity errors : sum local = 0.00176653, global = -3.32187e-05, cumulative = 0.0314594
smoothSolver:  Solving for omega, Initial residual = 0.00106045, Final residual = 8.72562e-05, No Iterations 4
smoothSolver:  Solving for k, Initial residual = 0.00951032, Final residual = 0.00066253, No Iterations 6
ExecutionTime = 0.86 s  ClockTime = 1 s

scalarTransport execute: age
smoothSolver:  Solving for age, Initial residual = 0.00747958, Final residual = 0.000728198, No Iterations 14

Time = 69

smoothSolver:  Solving for Ux, Initial residual = 0.00466194, Final residual = 0.000374462, No Iterations 5
smoothSolver:  Solving for Uy, Initial residual = 0.00455016, Final residual = 0.000401393, No Iterations 5
GAMG:  Solving for p, Initial residual = 0.0111828, Final residual = 0.00100134, No Iterations 2
time step continuity errors : sum local = 0.00169958, global = -4.89008e-05, cumulative = 0.0314105
smoothSolver:  Solving for omega, Initial residual = 0.00100007, Final residual = 8.41251e-05, No Iterations 4
smoothSolver:  Solving for k, Initial residual = 0.00911698, Final residual = 0.000637743, No Iterations 6
ExecutionTime = 0.87 s  ClockTime = 1 s

scalarTransport execute: age
smoothSolver:  Solving for age, Initial residual = 0.00724549, Final residual = 0.000722307, No Iterations 14

Time = 70

smoothSolver:  Solving for Ux, Initial residual = 0.00441834, Final residual = 0.000353743, No Iterations 5
smoothSolver:  Solving for Uy, Initial residual = 0.0044088, Final residual = 0.000392504, No Iterations 5
GAMG:  Solving for p, Initial residual = 0.0111759, Final residual = 0.000987745, No Iterations 2
time step continuity errors : sum local = 0.00167484, global = -6.47871e-05, cumulative = 0.0313457
smoothSolver:  Solving for omega, Initial residual = 0.000940768, Final residual = 8.09792e-05, No Iterations 4
smoothSolver:  Solving for k, Initial residual = 0.00874812, Final residual = 0.000613641, No Iterations 6
ExecutionTime = 0.88 s  ClockTime = 1 s

scalarTransport execute: age
smoothSolver:  Solving for age, Initial residual = 0.00704985, Final residual = 0.000629405, No Iterations 15

Time = 71

smoothSolver:  Solving for Ux, Initial residual = 0.00417771, Final residual = 0.000333401, No Iterations 5
smoothSolver:  Solving for Uy, Initial residual = 0.00429509, Final residual = 0.000385437, No Iterations 5
GAMG:  Solving for p, Initial residual = 0.011076, Final residual = 0.000987883, No Iterations 2
time step continuity errors : sum local = 0.0016769, global = -8.80042e-05, cumulative = 0.0312577
smoothSolver:  Solving for omega, Initial residual = 0.000882767, Final residual = 7.77712e-05, No Iterations 4
smoothSolver:  Solving for k, Initial residual = 0.00840166, Final residual = 0.000590268, No Iterations 6
ExecutionTime = 0.9 s  ClockTime = 1 s

scalarTransport execute: age
smoothSolver:  Solving for age, Initial residual = 0.00687341, Final residual = 0.000618839, No Iterations 15

Time = 72

smoothSolver:  Solving for Ux, Initial residual = 0.00394424, Final residual = 0.000313255, No Iterations 5
smoothSolver:  Solving for Uy, Initial residual = 0.00418252, Final residual = 0.000378206, No Iterations 5
GAMG:  Solving for p, Initial residual = 0.0109052, Final residual = 0.000989983, No Iterations 2
time step continuity errors : sum local = 0.00168333, global = -0.000116155, cumulative = 0.0311415
smoothSolver:  Solving for omega, Initial residual = 0.00083152, Final residual = 7.44895e-05, No Iterations 4
smoothSolver:  Solving for k, Initial residual = 0.0080779, Final residual = 0.00056771, No Iterations 6
ExecutionTime = 0.91 s  ClockTime = 1 s

scalarTransport execute: age
smoothSolver:  Solving for age, Initial residual = 0.00672055, Final residual = 0.000607069, No Iterations 15

Time = 73

smoothSolver:  Solving for Ux, Initial residual = 0.00372413, Final residual = 0.000293523, No Iterations 5
smoothSolver:  Solving for Uy, Initial residual = 0.00407314, Final residual = 0.000370555, No Iterations 5
GAMG:  Solving for p, Initial residual = 0.0106401, Final residual = 0.000951927, No Iterations 2
time step continuity errors : sum local = 0.00162178, global = -0.000137683, cumulative = 0.0310039
smoothSolver:  Solving for omega, Initial residual = 0.000780954, Final residual = 7.13295e-05, No Iterations 4
smoothSolver:  Solving for k, Initial residual = 0.0077766, Final residual = 0.000545988, No Iterations 6
ExecutionTime = 0.92 s  ClockTime = 1 s

scalarTransport execute: age
smoothSolver:  Solving for age, Initial residual = 0.00657123, Final residual = 0.000594331, No Iterations 15

Time = 74

smoothSolver:  Solving for Ux, Initial residual = 0.00352326, Final residual = 0.000274715, No Iterations 5
smoothSolver:  Solving for Uy, Initial residual = 0.00396698, Final residual = 0.000362756, No Iterations 5
GAMG:  Solving for p, Initial residual = 0.0102229, Final residual = 0.000878099, No Iterations 2
time step continuity errors : sum local = 0.00149966, global = -0.000147819, cumulative = 0.030856
smoothSolver:  Solving for omega, Initial residual = 0.000737083, Final residual = 6.82484e-05, No Iterations 4
smoothSolver:  Solving for k, Initial residual = 0.0074938, Final residual = 0.000525088, No Iterations 6
ExecutionTime = 0.93 s  ClockTime = 1 s

scalarTransport execute: age
smoothSolver:  Solving for age, Initial residual = 0.00643424, Final residual = 0.000580169, No Iterations 15

Time = 75

smoothSolver:  Solving for Ux, Initial residual = 0.00334835, Final residual = 0.000257562, No Iterations 5
smoothSolver:  Solving for Uy, Initial residual = 0.00386316, Final residual = 0.000354834, No Iterations 5
GAMG:  Solving for p, Initial residual = 0.00975233, Final residual = 0.000787409, No Iterations 2
time step continuity errors : sum local = 0.00134883, global = -0.000139247, cumulative = 0.0307168
smoothSolver:  Solving for omega, Initial residual = 0.000699898, Final residual = 6.52365e-05, No Iterations 4
smoothSolver:  Solving for k, Initial residual = 0.00722636, Final residual = 0.000504982, No Iterations 6
ExecutionTime = 0.94 s  ClockTime = 1 s

scalarTransport execute: age
smoothSolver:  Solving for age, Initial residual = 0.00631419, Final residual = 0.000564771, No Iterations 15

Time = 76

smoothSolver:  Solving for Ux, Initial residual = 0.00320569, Final residual = 0.000243199, No Iterations 5
smoothSolver:  Solving for Uy, Initial residual = 0.00376077, Final residual = 0.000347106, No Iterations 5
GAMG:  Solving for p, Initial residual = 0.00928143, Final residual = 0.000729498, No Iterations 2
time step continuity errors : sum local = 0.00125564, global = -0.000122428, cumulative = 0.0305944
smoothSolver:  Solving for omega, Initial residual = 0.000668004, Final residual = 6.23361e-05, No Iterations 4
smoothSolver:  Solving for k, Initial residual = 0.00696991, Final residual = 0.00048558, No Iterations 6
ExecutionTime = 0.96 s  ClockTime = 1 s

scalarTransport execute: age
smoothSolver:  Solving for age, Initial residual = 0.00619556, Final residual = 0.000547128, No Iterations 15

Time = 77

smoothSolver:  Solving for Ux, Initial residual = 0.00308086, Final residual = 0.000231449, No Iterations 5
smoothSolver:  Solving for Uy, Initial residual = 0.00365503, Final residual = 0.000338621, No Iterations 5
GAMG:  Solving for p, Initial residual = 0.00891276, Final residual = 0.00070802, No Iterations 2
time step continuity errors : sum local = 0.00122536, global = -0.000108767, cumulative = 0.0304856
smoothSolver:  Solving for omega, Initial residual = 0.000640991, Final residual = 5.96162e-05, No Iterations 4
smoothSolver:  Solving for k, Initial residual = 0.00672477, Final residual = 0.000466872, No Iterations 6
ExecutionTime = 0.97 s  ClockTime = 1 s

scalarTransport execute: age
smoothSolver:  Solving for age, Initial residual = 0.00607101, Final residual = 0.000603233, No Iterations 14

Time = 78

smoothSolver:  Solving for Ux, Initial residual = 0.00297324, Final residual = 0.000220889, No Iterations 5
smoothSolver:  Solving for Uy, Initial residual = 0.003528, Final residual = 0.000327427, No Iterations 5
GAMG:  Solving for p, Initial residual = 0.00866543, Final residual = 0.000699301, No Iterations 2
time step continuity errors : sum local = 0.00121617, global = -9.74497e-05, cumulative = 0.0303881
smoothSolver:  Solving for omega, Initial residual = 0.000615809, Final residual = 5.70141e-05, No Iterations 4
smoothSolver:  Solving for k, Initial residual = 0.00648987, Final residual = 0.000448862, No Iterations 6
ExecutionTime = 0.98 s  ClockTime = 1 s

scalarTransport execute: age
smoothSolver:  Solving for age, Initial residual = 0.00594846, Final residual = 0.000584635, No Iterations 14

Time = 79

smoothSolver:  Solving for Ux, Initial residual = 0.002878, Final residual = 0.00021061, No Iterations 5
smoothSolver:  Solving for Uy, Initial residual = 0.00338921, Final residual = 0.000314049, No Iterations 5
GAMG:  Solving for p, Initial residual = 0.00837895, Final residual = 0.000680677, No Iterations 2
time step continuity errors : sum local = 0.00118905, global = -8.50243e-05, cumulative = 0.0303031
smoothSolver:  Solving for omega, Initial residual = 0.000591152, Final residual = 5.4533e-05, No Iterations 4
smoothSolver:  Solving for k, Initial residual = 0.00626616, Final residual = 0.00043155, No Iterations 6
ExecutionTime = 0.99 s  ClockTime = 1 s

scalarTransport execute: age
smoothSolver:  Solving for age, Initial residual = 0.00583382, Final residual = 0.000567726, No Iterations 14

Time = 80

smoothSolver:  Solving for Ux, Initial residual = 0.0027894, Final residual = 0.000200958, No Iterations 5
smoothSolver:  Solving for Uy, Initial residual = 0.00324425, Final residual = 0.000299379, No Iterations 5
GAMG:  Solving for p, Initial residual = 0.00802838, Final residual = 0.000661043, No Iterations 2
time step continuity errors : sum local = 0.00115961, global = -7.35517e-05, cumulative = 0.0302296
smoothSolver:  Solving for omega, Initial residual = 0.000568078, Final residual = 5.21716e-05, No Iterations 4
smoothSolver:  Solving for k, Initial residual = 0.00605185, Final residual = 0.000414905, No Iterations 6
ExecutionTime = 1 s  ClockTime = 1 s

scalarTransport execute: age
smoothSolver:  Solving for age, Initial residual = 0.0056864, Final residual = 0.000544954, No Iterations 14

Time = 81

smoothSolver:  Solving for Ux, Initial residual = 0.00270145, Final residual = 0.000192414, No Iterations 5
smoothSolver:  Solving for Uy, Initial residual = 0.00309034, Final residual = 0.000283814, No Iterations 5
GAMG:  Solving for p, Initial residual = 0.00768952, Final residual = 0.00063706, No Iterations 2
time step continuity errors : sum local = 0.00112187, global = -6.33745e-05, cumulative = 0.0301662
smoothSolver:  Solving for omega, Initial residual = 0.000546033, Final residual = 4.98883e-05, No Iterations 4
smoothSolver:  Solving for k, Initial residual = 0.00584556, Final residual = 0.0003989, No Iterations 6
ExecutionTime = 1.02 s  ClockTime = 1 s

scalarTransport execute: age
smoothSolver:  Solving for age, Initial residual = 0.00557367, Final residual = 0.000527211, No Iterations 14

Time = 82

smoothSolver:  Solving for Ux, Initial residual = 0.00262516, Final residual = 0.000185813, No Iterations 5
smoothSolver:  Solving for Uy, Initial residual = 0.00293286, Final residual = 0.000267606, No Iterations 5
GAMG:  Solving for p, Initial residual = 0.0073533, Final residual = 0.000610279, No Iterations 2
time step continuity errors : sum local = 0.00107895, global = -5.44435e-05, cumulative = 0.0301118
smoothSolver:  Solving for omega, Initial residual = 0.000525023, Final residual = 4.76703e-05, No Iterations 4
smoothSolver:  Solving for k, Initial residual = 0.00564652, Final residual = 0.000383499, No Iterations 6
ExecutionTime = 1.03 s  ClockTime = 1 s

scalarTransport execute: age
smoothSolver:  Solving for age, Initial residual = 0.00542589, Final residual = 0.000503368, No Iterations 14

Time = 83

smoothSolver:  Solving for Ux, Initial residual = 0.00256289, Final residual = 0.000182091, No Iterations 5
smoothSolver:  Solving for Uy, Initial residual = 0.00277448, Final residual = 0.000251364, No Iterations 5
GAMG:  Solving for p, Initial residual = 0.00702265, Final residual = 0.000581996, No Iterations 2
time step continuity errors : sum local = 0.00103309, global = -4.64515e-05, cumulative = 0.0300653
smoothSolver:  Solving for omega, Initial residual = 0.000503534, Final residual = 4.54965e-05, No Iterations 4
smoothSolver:  Solving for k, Initial residual = 0.00545419, Final residual = 0.000368668, No Iterations 6
ExecutionTime = 1.04 s  ClockTime = 1 s

scalarTransport execute: age
smoothSolver:  Solving for age, Initial residual = 0.00529589, Final residual = 0.000482148, No Iterations 14

Time = 84

smoothSolver:  Solving for Ux, Initial residual = 0.00252363, Final residual = 0.000182714, No Iterations 5
smoothSolver:  Solving for Uy, Initial residual = 0.00261754, Final residual = 0.000235315, No Iterations 5
GAMG:  Solving for p, Initial residual = 0.00668916, Final residual = 0.000554482, No Iterations 2
time step continuity errors : sum local = 0.000988286, global = -4.03118e-05, cumulative = 0.030025
smoothSolver:  Solving for omega, Initial residual = 0.000482291, Final residual = 4.34802e-05, No Iterations 4
smoothSolver:  Solving for k, Initial residual = 0.00526844, Final residual = 0.000354371, No Iterations 6
ExecutionTime = 1.05 s  ClockTime = 1 s

scalarTransport execute: age
smoothSolver:  Solving for age, Initial residual = 0.00515666, Final residual = 0.00046042, No Iterations 14

Time = 85

smoothSolver:  Solving for Ux, Initial residual = 0.00250848, Final residual = 0.000185028, No Iterations 5
smoothSolver:  Solving for Uy, Initial residual = 0.00246414, Final residual = 0.000219238, No Iterations 5
GAMG:  Solving for p, Initial residual = 0.00637144, Final residual = 0.000523764, No Iterations 2
time step continuity errors : sum local = 0.00093719, global = -3.363e-05, cumulative = 0.0299914
smoothSolver:  Solving for omega, Initial residual = 0.00046353, Final residual = 4.16527e-05, No Iterations 4
smoothSolver:  Solving for k, Initial residual = 0.0050885, Final residual = 0.000340565, No Iterations 6
ExecutionTime = 1.06 s  ClockTime = 1 s

scalarTransport execute: age
smoothSolver:  Solving for age, Initial residual = 0.00502357, Final residual = 0.000441892, No Iterations 14

Time = 86

smoothSolver:  Solving for Ux, Initial residual = 0.00249425, Final residual = 0.000186918, No Iterations 5
smoothSolver:  Solving for Uy, Initial residual = 0.00231865, Final residual = 0.000203486, No Iterations 5
GAMG:  Solving for p, Initial residual = 0.00606459, Final residual = 0.000494228, No Iterations 2
time step continuity errors : sum local = 0.000887784, global = -2.50556e-05, cumulative = 0.0299663
smoothSolver:  Solving for omega, Initial residual = 0.000445964, Final residual = 4.00108e-05, No Iterations 4
smoothSolver:  Solving for k, Initial residual = 0.00491379, Final residual = 0.00032722, No Iterations 6
ExecutionTime = 1.07 s  ClockTime = 1 s

scalarTransport execute: age
smoothSolver:  Solving for age, Initial residual = 0.00490106, Final residual = 0.000485912, No Iterations 13

Time = 87

smoothSolver:  Solving for Ux, Initial residual = 0.00246964, Final residual = 0.000187556, No Iterations 5
smoothSolver:  Solving for Uy, Initial residual = 0.00218474, Final residual = 0.000188746, No Iterations 5
GAMG:  Solving for p, Initial residual = 0.00577628, Final residual = 0.000472006, No Iterations 2
time step continuity errors : sum local = 0.00085109, global = -1.5987e-05, cumulative = 0.0299503
smoothSolver:  Solving for omega, Initial residual = 0.000430621, Final residual = 3.84745e-05, No Iterations 4
smoothSolver:  Solving for k, Initial residual = 0.00474338, Final residual = 0.000314299, No Iterations 6
ExecutionTime = 1.09 s  ClockTime = 1 s

scalarTransport execute: age
smoothSolver:  Solving for age, Initial residual = 0.00478909, Final residual = 0.000471757, No Iterations 13

Time = 88

smoothSolver:  Solving for Ux, Initial residual = 0.00243109, Final residual = 0.000186767, No Iterations 5
smoothSolver:  Solving for Uy, Initial residual = 0.00206528, Final residual = 0.000175348, No Iterations 5
GAMG:  Solving for p, Initial residual = 0.00552187, Final residual = 0.000447744, No Iterations 2
time step continuity errors : sum local = 0.000810072, global = -6.02454e-07, cumulative = 0.0299497
smoothSolver:  Solving for omega, Initial residual = 0.000416238, Final residual = 3.69958e-05, No Iterations 4
smoothSolver:  Solving for k, Initial residual = 0.00457676, Final residual = 0.000301786, No Iterations 6
ExecutionTime = 1.1 s  ClockTime = 1 s

scalarTransport execute: age
smoothSolver:  Solving for age, Initial residual = 0.00467957, Final residual = 0.000458861, No Iterations 13

Time = 89

smoothSolver:  Solving for Ux, Initial residual = 0.00238145, Final residual = 0.000184632, No Iterations 5
smoothSolver:  Solving for Uy, Initial residual = 0.00197889, Final residual = 0.000163874, No Iterations 5
GAMG:  Solving for p, Initial residual = 0.00528896, Final residual = 0.000423135, No Iterations 2
time step continuity errors : sum local = 0.000768154, global = 2.23293e-05, cumulative = 0.029972
smoothSolver:  Solving for omega, Initial residual = 0.000402624, Final residual = 3.55698e-05, No Iterations 4
smoothSolver:  Solving for k, Initial residual = 0.00441341, Final residual = 0.000289647, No Iterations 6
ExecutionTime = 1.11 s  ClockTime = 1 s

scalarTransport execute: age
smoothSolver:  Solving for age, Initial residual = 0.00457626, Final residual = 0.000448194, No Iterations 13

Time = 90

smoothSolver:  Solving for Ux, Initial residual = 0.00232262, Final residual = 0.000181077, No Iterations 5
smoothSolver:  Solving for Uy, Initial residual = 0.00193232, Final residual = 0.000156331, No Iterations 5
GAMG:  Solving for p, Initial residual = 0.0050926, Final residual = 0.000398382, No Iterations 2
time step continuity errors : sum local = 0.000725676, global = 5.36049e-05, cumulative = 0.0300256
smoothSolver:  Solving for omega, Initial residual = 0.000390646, Final residual = 3.41782e-05, No Iterations 4
smoothSolver:  Solving for k, Initial residual = 0.00425259, Final residual = 0.000277866, No Iterations 6
ExecutionTime = 1.12 s  ClockTime = 1 s

scalarTransport execute: age
smoothSolver:  Solving for age, Initial residual = 0.00448016, Final residual = 0.000439033, No Iterations 13

Time = 91

smoothSolver:  Solving for Ux, Initial residual = 0.00225509, Final residual = 0.000175997, No Iterations 5
smoothSolver:  Solving for Uy, Initial residual = 0.00190995, Final residual = 0.000152094, No Iterations 5
GAMG:  Solving for p, Initial residual = 0.00491369, Final residual = 0.000346098, No Iterations 2
time step continuity errors : sum local = 0.000632494, global = 7.54236e-05, cumulative = 0.0301011
smoothSolver:  Solving for omega, Initial residual = 0.00037991, Final residual = 3.27875e-05, No Iterations 4
smoothSolver:  Solving for k, Initial residual = 0.00409344, Final residual = 0.000266404, No Iterations 6
ExecutionTime = 1.13 s  ClockTime = 1 s

scalarTransport execute: age
smoothSolver:  Solving for age, Initial residual = 0.00438341, Final residual = 0.00043044, No Iterations 13

Time = 92

smoothSolver:  Solving for Ux, Initial residual = 0.00218757, Final residual = 0.000170494, No Iterations 5
smoothSolver:  Solving for Uy, Initial residual = 0.00190059, Final residual = 0.000149615, No Iterations 5
GAMG:  Solving for p, Initial residual = 0.00470354, Final residual = 0.000298949, No Iterations 2
time step continuity errors : sum local = 0.000547345, global = 7.84417e-05, cumulative = 0.0301795
smoothSolver:  Solving for omega, Initial residual = 0.000370568, Final residual = 3.14436e-05, No Iterations 4
smoothSolver:  Solving for k, Initial residual = 0.00393683, Final residual = 0.000255265, No Iterations 6
ExecutionTime = 1.14 s  ClockTime = 1 s

scalarTransport execute: age
smoothSolver:  Solving for age, Initial residual = 0.00429025, Final residual = 0.000422775, No Iterations 13

Time = 93

smoothSolver:  Solving for Ux, Initial residual = 0.00212981, Final residual = 0.00016488, No Iterations 5
smoothSolver:  Solving for Uy, Initial residual = 0.00190523, Final residual = 0.000148848, No Iterations 5
GAMG:  Solving for p, Initial residual = 0.00451968, Final residual = 0.00028083, No Iterations 2
time step continuity errors : sum local = 0.000514258, global = 8.03508e-05, cumulative = 0.0302599
smoothSolver:  Solving for omega, Initial residual = 0.00036384, Final residual = 3.01453e-05, No Iterations 4
smoothSolver:  Solving for k, Initial residual = 0.00378318, Final residual = 0.000244505, No Iterations 6
ExecutionTime = 1.16 s  ClockTime = 1 s

scalarTransport execute: age
smoothSolver:  Solving for age, Initial residual = 0.00420889, Final residual = 0.000417415, No Iterations 13

Time = 94

smoothSolver:  Solving for Ux, Initial residual = 0.00206946, Final residual = 0.000158472, No Iterations 5
smoothSolver:  Solving for Uy, Initial residual = 0.00192303, Final residual = 0.000148794, No Iterations 5
GAMG:  Solving for p, Initial residual = 0.00441748, Final residual = 0.000285617, No Iterations 2
time step continuity errors : sum local = 0.000522846, global = 9.223e-05, cumulative = 0.0303521
smoothSolver:  Solving for omega, Initial residual = 0.000360202, Final residual = 2.89173e-05, No Iterations 4
smoothSolver:  Solving for k, Initial residual = 0.00363342, Final residual = 0.000234142, No Iterations 6
ExecutionTime = 1.17 s  ClockTime = 1 s

scalarTransport execute: age
smoothSolver:  Solving for age, Initial residual = 0.00413985, Final residual = 0.000413325, No Iterations 13

Time = 95

smoothSolver:  Solving for Ux, Initial residual = 0.00199285, Final residual = 0.000149933, No Iterations 5
smoothSolver:  Solving for Uy, Initial residual = 0.00194465, Final residual = 0.000148365, No Iterations 5
GAMG:  Solving for p, Initial residual = 0.00438568, Final residual = 0.000305258, No Iterations 2
time step continuity errors : sum local = 0.000558888, global = 9.84964e-05, cumulative = 0.0304506
smoothSolver:  Solving for omega, Initial residual = 0.000353109, Final residual = 2.77198e-05, No Iterations 4
smoothSolver:  Solving for k, Initial residual = 0.00348626, Final residual = 0.000348365, No Iterations 5
ExecutionTime = 1.18 s  ClockTime = 1 s

scalarTransport execute: age
smoothSolver:  Solving for age, Initial residual = 0.00406536, Final residual = 0.000358808, No Iterations 14

Time = 96

smoothSolver:  Solving for Ux, Initial residual = 0.00190736, Final residual = 0.000139859, No Iterations 5
smoothSolver:  Solving for Uy, Initial residual = 0.00196276, Final residual = 0.000147526, No Iterations 5
[...]

Time = 711

smoothSolver:  Solving for Ux, Initial residual = 7.21322e-07, Final residual = 6.52657e-08, No Iterations 4
smoothSolver:  Solving for Uy, Initial residual = 5.80529e-07, Final residual = 4.70698e-08, No Iterations 5
GAMG:  Solving for p, Initial residual = 1.36164e-06, Final residual = 6.75849e-08, No Iterations 3
time step continuity errors : sum local = 1.29646e-07, global = -8.43983e-10, cumulative = 0.0350872
smoothSolver:  Solving for omega, Initial residual = 9.18128e-08, Final residual = 9.64591e-09, No Iterations 3
smoothSolver:  Solving for k, Initial residual = 3.03802e-07, Final residual = 2.02215e-08, No Iterations 5
ExecutionTime = 8.49 s  ClockTime = 9 s

scalarTransport execute: age
smoothSolver:  Solving for age, Initial residual = 0.000362575, Final residual = 3.25976e-05, No Iterations 15

Time = 712

smoothSolver:  Solving for Ux, Initial residual = 7.0787e-07, Final residual = 6.41034e-08, No Iterations 4
smoothSolver:  Solving for Uy, Initial residual = 5.69661e-07, Final residual = 4.62486e-08, No Iterations 5
GAMG:  Solving for p, Initial residual = 1.3425e-06, Final residual = 6.6354e-08, No Iterations 3
time step continuity errors : sum local = 1.27285e-07, global = -2.21367e-09, cumulative = 0.0350872
smoothSolver:  Solving for omega, Initial residual = 9.08362e-08, Final residual = 9.53993e-09, No Iterations 3
smoothSolver:  Solving for k, Initial residual = 3.00503e-07, Final residual = 1.99992e-08, No Iterations 5
ExecutionTime = 8.51 s  ClockTime = 9 s

scalarTransport execute: age
smoothSolver:  Solving for age, Initial residual = 0.000362072, Final residual = 3.25523e-05, No Iterations 15

Time = 713

smoothSolver:  Solving for Ux, Initial residual = 6.94292e-07, Final residual = 6.29026e-08, No Iterations 4
smoothSolver:  Solving for Uy, Initial residual = 5.5956e-07, Final residual = 4.53927e-08, No Iterations 5
GAMG:  Solving for p, Initial residual = 1.3227e-06, Final residual = 6.59939e-08, No Iterations 3
time step continuity errors : sum local = 1.26594e-07, global = -1.26675e-10, cumulative = 0.0350872
smoothSolver:  Solving for omega, Initial residual = 8.94588e-08, Final residual = 9.43211e-09, No Iterations 3
smoothSolver:  Solving for k, Initial residual = 2.97102e-07, Final residual = 1.97771e-08, No Iterations 5
ExecutionTime = 8.52 s  ClockTime = 9 s

scalarTransport execute: age
smoothSolver:  Solving for age, Initial residual = 0.00036157, Final residual = 3.25072e-05, No Iterations 15

Time = 714

smoothSolver:  Solving for Ux, Initial residual = 6.8128e-07, Final residual = 6.17005e-08, No Iterations 4
smoothSolver:  Solving for Uy, Initial residual = 5.49978e-07, Final residual = 4.45805e-08, No Iterations 5
GAMG:  Solving for p, Initial residual = 1.30195e-06, Final residual = 6.37746e-08, No Iterations 3
time step continuity errors : sum local = 1.22337e-07, global = -1.7145e-09, cumulative = 0.0350872
smoothSolver:  Solving for omega, Initial residual = 8.7742e-08, Final residual = 9.29056e-09, No Iterations 3
smoothSolver:  Solving for k, Initial residual = 2.93762e-07, Final residual = 1.95573e-08, No Iterations 5
ExecutionTime = 8.53 s  ClockTime = 9 s

scalarTransport execute: age
smoothSolver:  Solving for age, Initial residual = 0.000361069, Final residual = 3.24622e-05, No Iterations 15

Time = 715

smoothSolver:  Solving for Ux, Initial residual = 6.68589e-07, Final residual = 6.06105e-08, No Iterations 4
smoothSolver:  Solving for Uy, Initial residual = 5.39498e-07, Final residual = 4.37877e-08, No Iterations 5
GAMG:  Solving for p, Initial residual = 1.28392e-06, Final residual = 6.34921e-08, No Iterations 3
time step continuity errors : sum local = 1.21795e-07, global = 2.46327e-11, cumulative = 0.0350872
smoothSolver:  Solving for omega, Initial residual = 8.68132e-08, Final residual = 9.17568e-09, No Iterations 3
smoothSolver:  Solving for k, Initial residual = 2.9049e-07, Final residual = 1.93364e-08, No Iterations 5
ExecutionTime = 8.54 s  ClockTime = 9 s

scalarTransport execute: age
smoothSolver:  Solving for age, Initial residual = 0.00036057, Final residual = 3.24173e-05, No Iterations 15

Time = 716

smoothSolver:  Solving for Ux, Initial residual = 6.55585e-07, Final residual = 5.94302e-08, No Iterations 4
smoothSolver:  Solving for Uy, Initial residual = 5.30094e-07, Final residual = 4.29737e-08, No Iterations 5
GAMG:  Solving for p, Initial residual = 1.26375e-06, Final residual = 6.13702e-08, No Iterations 3
time step continuity errors : sum local = 1.17724e-07, global = -1.74617e-09, cumulative = 0.0350872
smoothSolver:  Solving for omega, Initial residual = 8.49726e-08, Final residual = 9.02869e-09, No Iterations 3
smoothSolver:  Solving for k, Initial residual = 2.87165e-07, Final residual = 1.91178e-08, No Iterations 5
ExecutionTime = 8.55 s  ClockTime = 9 s

scalarTransport execute: age
smoothSolver:  Solving for age, Initial residual = 0.000360072, Final residual = 3.23725e-05, No Iterations 15

Time = 717

smoothSolver:  Solving for Ux, Initial residual = 6.4344e-07, Final residual = 5.83716e-08, No Iterations 4
smoothSolver:  Solving for Uy, Initial residual = 5.201e-07, Final residual = 4.21944e-08, No Iterations 5
GAMG:  Solving for p, Initial residual = 1.24689e-06, Final residual = 6.11311e-08, No Iterations 3
time step continuity errors : sum local = 1.17266e-07, global = -2.0819e-10, cumulative = 0.0350872
smoothSolver:  Solving for omega, Initial residual = 8.39929e-08, Final residual = 8.90938e-09, No Iterations 3
smoothSolver:  Solving for k, Initial residual = 2.83928e-07, Final residual = 1.8899e-08, No Iterations 5
ExecutionTime = 8.56 s  ClockTime = 9 s

scalarTransport execute: age
smoothSolver:  Solving for age, Initial residual = 0.000359575, Final residual = 3.23278e-05, No Iterations 15

Time = 718

smoothSolver:  Solving for Ux, Initial residual = 6.30946e-07, Final residual = 5.72318e-08, No Iterations 4
smoothSolver:  Solving for Uy, Initial residual = 5.11174e-07, Final residual = 4.14042e-08, No Iterations 5
GAMG:  Solving for p, Initial residual = 1.22717e-06, Final residual = 5.90427e-08, No Iterations 3
time step continuity errors : sum local = 1.13259e-07, global = -2.19634e-09, cumulative = 0.0350872
smoothSolver:  Solving for omega, Initial residual = 8.21689e-08, Final residual = 8.75777e-09, No Iterations 3
smoothSolver:  Solving for k, Initial residual = 2.80667e-07, Final residual = 1.86827e-08, No Iterations 5
ExecutionTime = 8.58 s  ClockTime = 9 s

scalarTransport execute: age
smoothSolver:  Solving for age, Initial residual = 0.000359079, Final residual = 3.22833e-05, No Iterations 15

Time = 719

smoothSolver:  Solving for Ux, Initial residual = 6.192e-07, Final residual = 5.62112e-08, No Iterations 4
smoothSolver:  Solving for Uy, Initial residual = 5.01568e-07, Final residual = 4.06491e-08, No Iterations 5
GAMG:  Solving for p, Initial residual = 1.21116e-06, Final residual = 5.90064e-08, No Iterations 3
time step continuity errors : sum local = 1.1319e-07, global = -6.67602e-10, cumulative = 0.0350872
smoothSolver:  Solving for omega, Initial residual = 8.11947e-08, Final residual = 8.63718e-09, No Iterations 3
smoothSolver:  Solving for k, Initial residual = 2.77482e-07, Final residual = 1.84666e-08, No Iterations 5
ExecutionTime = 8.59 s  ClockTime = 9 s

scalarTransport execute: age
smoothSolver:  Solving for age, Initial residual = 0.000358585, Final residual = 3.22388e-05, No Iterations 15

Time = 720

smoothSolver:  Solving for Ux, Initial residual = 6.07091e-07, Final residual = 5.50973e-08, No Iterations 4
smoothSolver:  Solving for Uy, Initial residual = 4.93101e-07, Final residual = 3.98822e-08, No Iterations 5
GAMG:  Solving for p, Initial residual = 1.19205e-06, Final residual = 5.75431e-08, No Iterations 3
time step continuity errors : sum local = 1.10383e-07, global = 7.95471e-11, cumulative = 0.0350872
smoothSolver:  Solving for omega, Initial residual = 7.93979e-08, Final residual = 8.49117e-09, No Iterations 3
smoothSolver:  Solving for k, Initial residual = 2.74267e-07, Final residual = 1.82531e-08, No Iterations 5
ExecutionTime = 8.6 s  ClockTime = 9 s

scalarTransport execute: age
smoothSolver:  Solving for age, Initial residual = 0.000358092, Final residual = 3.21946e-05, No Iterations 15

Time = 721

smoothSolver:  Solving for Ux, Initial residual = 5.95725e-07, Final residual = 5.40802e-08, No Iterations 4
smoothSolver:  Solving for Uy, Initial residual = 4.84095e-07, Final residual = 3.91649e-08, No Iterations 5
GAMG:  Solving for p, Initial residual = 1.17525e-06, Final residual = 5.58078e-08, No Iterations 3
time step continuity errors : sum local = 1.07054e-07, global = -2.09669e-09, cumulative = 0.0350872
smoothSolver:  Solving for omega, Initial residual = 7.81523e-08, Final residual = 8.34593e-09, No Iterations 3
smoothSolver:  Solving for k, Initial residual = 2.71167e-07, Final residual = 1.80406e-08, No Iterations 5
ExecutionTime = 8.61 s  ClockTime = 9 s

scalarTransport execute: age
smoothSolver:  Solving for age, Initial residual = 0.000357601, Final residual = 3.21503e-05, No Iterations 15

Time = 722

smoothSolver:  Solving for Ux, Initial residual = 5.8415e-07, Final residual = 5.30795e-08, No Iterations 4
smoothSolver:  Solving for Uy, Initial residual = 4.75005e-07, Final residual = 3.84176e-08, No Iterations 5
GAMG:  Solving for p, Initial residual = 1.16011e-06, Final residual = 5.5833e-08, No Iterations 3
time step continuity errors : sum local = 1.07102e-07, global = -9.09255e-10, cumulative = 0.0350872
smoothSolver:  Solving for omega, Initial residual = 7.70348e-08, Final residual = 8.22534e-09, No Iterations 3
smoothSolver:  Solving for k, Initial residual = 2.6807e-07, Final residual = 1.7829e-08, No Iterations 5
ExecutionTime = 8.62 s  ClockTime = 9 s

scalarTransport execute: age
smoothSolver:  Solving for age, Initial residual = 0.00035711, Final residual = 3.21062e-05, No Iterations 15

Time = 723

smoothSolver:  Solving for Ux, Initial residual = 5.72729e-07, Final residual = 5.20105e-08, No Iterations 4
smoothSolver:  Solving for Uy, Initial residual = 4.67202e-07, Final residual = 3.76794e-08, No Iterations 5
GAMG:  Solving for p, Initial residual = 1.14183e-06, Final residual = 5.44137e-08, No Iterations 3
time step continuity errors : sum local = 1.0438e-07, global = -3.66756e-10, cumulative = 0.0350872
smoothSolver:  Solving for omega, Initial residual = 7.52565e-08, Final residual = 8.08102e-09, No Iterations 3
smoothSolver:  Solving for k, Initial residual = 2.64941e-07, Final residual = 1.76205e-08, No Iterations 5
ExecutionTime = 8.64 s  ClockTime = 9 s

scalarTransport execute: age
smoothSolver:  Solving for age, Initial residual = 0.000356621, Final residual = 3.20623e-05, No Iterations 15

Time = 724

smoothSolver:  Solving for Ux, Initial residual = 5.6212e-07, Final residual = 5.10465e-08, No Iterations 4
smoothSolver:  Solving for Uy, Initial residual = 4.58696e-07, Final residual = 3.69955e-08, No Iterations 5
GAMG:  Solving for p, Initial residual = 1.12604e-06, Final residual = 5.33895e-08, No Iterations 3
time step continuity errors : sum local = 1.02415e-07, global = -1.03469e-10, cumulative = 0.0350872
smoothSolver:  Solving for omega, Initial residual = 7.41533e-08, Final residual = 7.94387e-09, No Iterations 3
smoothSolver:  Solving for k, Initial residual = 2.61904e-07, Final residual = 1.74134e-08, No Iterations 5
ExecutionTime = 8.65 s  ClockTime = 9 s

scalarTransport execute: age
smoothSolver:  Solving for age, Initial residual = 0.000356134, Final residual = 3.20184e-05, No Iterations 15

Time = 725

smoothSolver:  Solving for Ux, Initial residual = 5.51146e-07, Final residual = 5.00657e-08, No Iterations 4
smoothSolver:  Solving for Uy, Initial residual = 4.50423e-07, Final residual = 3.62921e-08, No Iterations 5
GAMG:  Solving for p, Initial residual = 1.11044e-06, Final residual = 5.23985e-08, No Iterations 3
time step continuity errors : sum local = 1.00514e-07, global = -6.40463e-11, cumulative = 0.0350872
smoothSolver:  Solving for omega, Initial residual = 7.28051e-08, Final residual = 7.80879e-09, No Iterations 3
smoothSolver:  Solving for k, Initial residual = 2.58869e-07, Final residual = 1.72078e-08, No Iterations 5
ExecutionTime = 8.66 s  ClockTime = 9 s

scalarTransport execute: age
smoothSolver:  Solving for age, Initial residual = 0.000355647, Final residual = 3.19747e-05, No Iterations 15

Time = 726

smoothSolver:  Solving for Ux, Initial residual = 5.4051e-07, Final residual = 4.90984e-08, No Iterations 4
smoothSolver:  Solving for Uy, Initial residual = 4.42368e-07, Final residual = 3.55932e-08, No Iterations 5
GAMG:  Solving for p, Initial residual = 1.0956e-06, Final residual = 5.14721e-08, No Iterations 3
time step continuity errors : sum local = 9.87365e-08, global = -2.16292e-10, cumulative = 0.0350872
smoothSolver:  Solving for omega, Initial residual = 7.14682e-08, Final residual = 7.67551e-09, No Iterations 3
smoothSolver:  Solving for k, Initial residual = 2.55856e-07, Final residual = 1.70039e-08, No Iterations 5
ExecutionTime = 8.67 s  ClockTime = 9 s

scalarTransport execute: age
smoothSolver:  Solving for age, Initial residual = 0.000355162, Final residual = 3.19311e-05, No Iterations 15

Time = 727

smoothSolver:  Solving for Ux, Initial residual = 5.30195e-07, Final residual = 4.81543e-08, No Iterations 4
smoothSolver:  Solving for Uy, Initial residual = 4.34574e-07, Final residual = 3.49049e-08, No Iterations 5
GAMG:  Solving for p, Initial residual = 1.08088e-06, Final residual = 5.05743e-08, No Iterations 3
time step continuity errors : sum local = 9.70145e-08, global = -4.42449e-10, cumulative = 0.0350872
smoothSolver:  Solving for omega, Initial residual = 7.01925e-08, Final residual = 7.54275e-09, No Iterations 3
smoothSolver:  Solving for k, Initial residual = 2.52869e-07, Final residual = 1.68018e-08, No Iterations 5
ExecutionTime = 8.69 s  ClockTime = 9 s

scalarTransport execute: age
smoothSolver:  Solving for age, Initial residual = 0.000354678, Final residual = 3.18875e-05, No Iterations 15

Time = 728

smoothSolver:  Solving for Ux, Initial residual = 5.20046e-07, Final residual = 4.72255e-08, No Iterations 4
smoothSolver:  Solving for Uy, Initial residual = 4.2702e-07, Final residual = 3.42302e-08, No Iterations 5
GAMG:  Solving for p, Initial residual = 1.0665e-06, Final residual = 4.97127e-08, No Iterations 3
time step continuity errors : sum local = 9.53616e-08, global = -6.86215e-10, cumulative = 0.0350872
smoothSolver:  Solving for omega, Initial residual = 6.89075e-08, Final residual = 7.41087e-09, No Iterations 3
smoothSolver:  Solving for k, Initial residual = 2.49901e-07, Final residual = 1.66015e-08, No Iterations 5
ExecutionTime = 8.7 s  ClockTime = 9 s

scalarTransport execute: age
smoothSolver:  Solving for age, Initial residual = 0.000354196, Final residual = 3.1844e-05, No Iterations 15

Time = 729

smoothSolver:  Solving for Ux, Initial residual = 5.10175e-07, Final residual = 4.63112e-08, No Iterations 4
smoothSolver:  Solving for Uy, Initial residual = 4.19621e-07, Final residual = 3.35657e-08, No Iterations 5
GAMG:  Solving for p, Initial residual = 1.05276e-06, Final residual = 4.88714e-08, No Iterations 3
time step continuity errors : sum local = 9.37478e-08, global = -9.14518e-10, cumulative = 0.0350872
smoothSolver:  Solving for omega, Initial residual = 6.76554e-08, Final residual = 7.28028e-09, No Iterations 3
smoothSolver:  Solving for k, Initial residual = 2.46958e-07, Final residual = 1.64031e-08, No Iterations 5
ExecutionTime = 8.71 s  ClockTime = 9 s

scalarTransport execute: age
smoothSolver:  Solving for age, Initial residual = 0.000353714, Final residual = 3.18007e-05, No Iterations 15

Time = 730

smoothSolver:  Solving for Ux, Initial residual = 5.00491e-07, Final residual = 4.54119e-08, No Iterations 4
smoothSolver:  Solving for Uy, Initial residual = 4.12332e-07, Final residual = 3.29096e-08, No Iterations 5
GAMG:  Solving for p, Initial residual = 1.03905e-06, Final residual = 4.80403e-08, No Iterations 3
time step continuity errors : sum local = 9.21534e-08, global = -1.11405e-09, cumulative = 0.0350872
smoothSolver:  Solving for omega, Initial residual = 6.6412e-08, Final residual = 7.1511e-09, No Iterations 3
smoothSolver:  Solving for k, Initial residual = 2.4404e-07, Final residual = 1.62065e-08, No Iterations 5
ExecutionTime = 8.72 s  ClockTime = 9 s

scalarTransport execute: age
smoothSolver:  Solving for age, Initial residual = 0.000353234, Final residual = 3.17575e-05, No Iterations 15

Time = 731

smoothSolver:  Solving for Ux, Initial residual = 4.91014e-07, Final residual = 4.45291e-08, No Iterations 4
smoothSolver:  Solving for Uy, Initial residual = 4.0521e-07, Final residual = 3.22628e-08, No Iterations 5
GAMG:  Solving for p, Initial residual = 1.02583e-06, Final residual = 4.72139e-08, No Iterations 3
time step continuity errors : sum local = 9.05682e-08, global = -1.28527e-09, cumulative = 0.0350872
smoothSolver:  Solving for omega, Initial residual = 6.51889e-08, Final residual = 7.02332e-09, No Iterations 3
smoothSolver:  Solving for k, Initial residual = 2.41147e-07, Final residual = 1.60117e-08, No Iterations 5
ExecutionTime = 8.73 s  ClockTime = 9 s

scalarTransport execute: age
smoothSolver:  Solving for age, Initial residual = 0.000352755, Final residual = 3.17144e-05, No Iterations 15

Time = 732

smoothSolver:  Solving for Ux, Initial residual = 4.81751e-07, Final residual = 4.36624e-08, No Iterations 4
smoothSolver:  Solving for Uy, Initial residual = 3.98291e-07, Final residual = 3.16308e-08, No Iterations 5
GAMG:  Solving for p, Initial residual = 1.01283e-06, Final residual = 4.63978e-08, No Iterations 3
time step continuity errors : sum local = 8.90025e-08, global = -1.4359e-09, cumulative = 0.0350872
smoothSolver:  Solving for omega, Initial residual = 6.3983e-08, Final residual = 6.89695e-09, No Iterations 3
smoothSolver:  Solving for k, Initial residual = 2.38279e-07, Final residual = 1.58187e-08, No Iterations 5
ExecutionTime = 8.75 s  ClockTime = 9 s

scalarTransport execute: age
smoothSolver:  Solving for age, Initial residual = 0.000352277, Final residual = 3.16714e-05, No Iterations 15

Time = 733

smoothSolver:  Solving for Ux, Initial residual = 4.72767e-07, Final residual = 4.28111e-08, No Iterations 4
smoothSolver:  Solving for Uy, Initial residual = 3.91646e-07, Final residual = 3.10254e-08, No Iterations 5
GAMG:  Solving for p, Initial residual = 1.00023e-06, Final residual = 4.5596e-08, No Iterations 3
time step continuity errors : sum local = 8.74646e-08, global = -1.57534e-09, cumulative = 0.0350872
smoothSolver:  Solving for omega, Initial residual = 6.27924e-08, Final residual = 6.77189e-09, No Iterations 3
smoothSolver:  Solving for k, Initial residual = 2.35437e-07, Final residual = 1.56274e-08, No Iterations 5
ExecutionTime = 8.76 s  ClockTime = 9 s

scalarTransport execute: age
smoothSolver:  Solving for age, Initial residual = 0.000351801, Final residual = 3.16285e-05, No Iterations 15

Time = 734

smoothSolver:  Solving for Ux, Initial residual = 4.6403e-07, Final residual = 4.19745e-08, No Iterations 4
smoothSolver:  Solving for Uy, Initial residual = 3.85224e-07, Final residual = 3.04461e-08, No Iterations 5
GAMG:  Solving for p, Initial residual = 9.88254e-07, Final residual = 4.48195e-08, No Iterations 3
time step continuity errors : sum local = 8.5975e-08, global = -1.71141e-09, cumulative = 0.0350872
smoothSolver:  Solving for omega, Initial residual = 6.1618e-08, Final residual = 6.64817e-09, No Iterations 3
smoothSolver:  Solving for k, Initial residual = 2.3262e-07, Final residual = 1.54378e-08, No Iterations 5
ExecutionTime = 8.77 s  ClockTime = 9 s


SIMPLE solution converged in 734 iterations

scalarTransport execute: age
smoothSolver:  Solving for age, Initial residual = 0.000351325, Final residual = 3.15857e-05, No Iterations 15

End

