/*---------------------------------------------------------------------------*\
| =========                 |                                                 |
| \\      /  F ield         | OpenFOAM: The Open Source CFD Toolbox           |
|  \\    /   O peration     | Version:  v2012                                 |
|   \\  /    A nd           | Website:  www.openfoam.com                      |
|    \\/     M anipulation  |                                                 |
\*---------------------------------------------------------------------------*/
Build  : _7bdb509494-20201222 OPENFOAM=2012
Arch   : "LSB;label=32;scalar=64"
Exec   : simpleFoam
Date   : Feb 23 2023
Time   : 10:29:00
Host   : johnsDesktop
PID    : 32517
I/O    : uncollated
Case   : /home/john/of_runs/cases/0_86_663_4
nProcs : 1
trapFpe: Floating point exception trapping enabled (FOAM_SIGFPE).
fileModificationChecking : Monitoring run-time modified files using timeStampMaster (fileModificationSkew 5, maxFileModificationPolls 20)
allowSystemOperations : Allowing user-supplied system call operations

// * * * * * * * * * * * * * * * * * * * * * * * * * * * * * * * * * * * * * //
Create time

Create mesh for time = 0


SIMPLE: convergence criteria
    field p	 tolerance 1e-06
    field U	 tolerance 1e-06
    field "(k|epsilon|omega|f|v2|age)"	 tolerance 1e-05

Reading field p

Reading field U

Reading/calculating face flux field phi

Selecting incompressible transport model Newtonian
Selecting turbulence model type RAS
Selecting RAS turbulence model kOmegaSST
Selecting patchDistMethod meshWave
RAS
{
    RASModel        kOmegaSST;
    turbulence      on;
    printCoeffs     on;
    alphaK1         0.85;
    alphaK2         1;
    alphaOmega1     0.5;
    alphaOmega2     0.856;
    gamma1          0.555556;
    gamma2          0.44;
    beta1           0.075;
    beta2           0.0828;
    betaStar        0.09;
    a1              0.31;
    b1              1;
    c1              10;
    F3              false;
    decayControl    false;
    kInf            0;
    omegaInf        0;
}

No MRF models present

No finite volume options present

Starting time loop

Selecting finite volume options type scalarSemiImplicitSource
    Source: unitySource
    - selecting all cells
    - selected 6018 cell(s) with volume 0.03157
Time = 1

smoothSolver:  Solving for Ux, Initial residual = 0, Final residual = 0, No Iterations 0
smoothSolver:  Solving for Uy, Initial residual = 1, Final residual = 0.0357265, No Iterations 2
GAMG:  Solving for p, Initial residual = 1, Final residual = 0.0885368, No Iterations 9
time step continuity errors : sum local = 0.00560892, global = -0.00020987, cumulative = -0.00020987
smoothSolver:  Solving for omega, Initial residual = 0.134336, Final residual = 0.00678203, No Iterations 3
smoothSolver:  Solving for k, Initial residual = 1, Final residual = 0.0708538, No Iterations 3
ExecutionTime = 0.05 s  ClockTime = 0 s

scalarTransport execute: age
smoothSolver:  Solving for age, Initial residual = 1, Final residual = 0.094885, No Iterations 6

Time = 2

smoothSolver:  Solving for Ux, Initial residual = 0.430373, Final residual = 0.0368021, No Iterations 5
smoothSolver:  Solving for Uy, Initial residual = 0.241698, Final residual = 0.016556, No Iterations 5
GAMG:  Solving for p, Initial residual = 0.0748867, Final residual = 0.00722774, No Iterations 3
time step continuity errors : sum local = 0.0504459, global = 0.00359381, cumulative = 0.00338394
smoothSolver:  Solving for omega, Initial residual = 0.0724462, Final residual = 0.00550161, No Iterations 3
smoothSolver:  Solving for k, Initial residual = 0.513385, Final residual = 0.0339162, No Iterations 4
ExecutionTime = 0.06 s  ClockTime = 0 s

scalarTransport execute: age
smoothSolver:  Solving for age, Initial residual = 0.517042, Final residual = 0.0510124, No Iterations 6

Time = 3

smoothSolver:  Solving for Ux, Initial residual = 0.220766, Final residual = 0.0209652, No Iterations 4
smoothSolver:  Solving for Uy, Initial residual = 0.110599, Final residual = 0.00940004, No Iterations 4
GAMG:  Solving for p, Initial residual = 0.0658095, Final residual = 0.00540994, No Iterations 3
time step continuity errors : sum local = 0.0304969, global = 0.00429389, cumulative = 0.00767783
smoothSolver:  Solving for omega, Initial residual = 0.0262955, Final residual = 0.00183362, No Iterations 4
smoothSolver:  Solving for k, Initial residual = 0.333379, Final residual = 0.0287346, No Iterations 4
ExecutionTime = 0.07 s  ClockTime = 1 s

scalarTransport execute: age
smoothSolver:  Solving for age, Initial residual = 0.31314, Final residual = 0.0285091, No Iterations 7

Time = 4

smoothSolver:  Solving for Ux, Initial residual = 0.146055, Final residual = 0.0111882, No Iterations 4
smoothSolver:  Solving for Uy, Initial residual = 0.0832755, Final residual = 0.00672292, No Iterations 4
GAMG:  Solving for p, Initial residual = 0.0676892, Final residual = 0.00560722, No Iterations 2
time step continuity errors : sum local = 0.0258875, global = 0.00371462, cumulative = 0.0113925
smoothSolver:  Solving for omega, Initial residual = 0.0184737, Final residual = 0.00122601, No Iterations 4
smoothSolver:  Solving for k, Initial residual = 0.250929, Final residual = 0.0245658, No Iterations 4
ExecutionTime = 0.09 s  ClockTime = 1 s

scalarTransport execute: age
smoothSolver:  Solving for age, Initial residual = 0.213356, Final residual = 0.0199989, No Iterations 7

Time = 5

smoothSolver:  Solving for Ux, Initial residual = 0.124384, Final residual = 0.00979282, No Iterations 4
smoothSolver:  Solving for Uy, Initial residual = 0.0758619, Final residual = 0.00699023, No Iterations 4
GAMG:  Solving for p, Initial residual = 0.0655369, Final residual = 0.00312479, No Iterations 3
time step continuity errors : sum local = 0.0146499, global = 0.000964443, cumulative = 0.0123569
smoothSolver:  Solving for omega, Initial residual = 0.0124206, Final residual = 0.000830031, No Iterations 4
smoothSolver:  Solving for k, Initial residual = 0.192165, Final residual = 0.0120372, No Iterations 5
ExecutionTime = 0.1 s  ClockTime = 1 s

scalarTransport execute: age
smoothSolver:  Solving for age, Initial residual = 0.158711, Final residual = 0.0147149, No Iterations 8

Time = 6

smoothSolver:  Solving for Ux, Initial residual = 0.114429, Final residual = 0.0100334, No Iterations 4
smoothSolver:  Solving for Uy, Initial residual = 0.0698152, Final residual = 0.00452097, No Iterations 5
GAMG:  Solving for p, Initial residual = 0.0566163, Final residual = 0.00257514, No Iterations 3
time step continuity errors : sum local = 0.0122547, global = 0.000142234, cumulative = 0.0124991
smoothSolver:  Solving for omega, Initial residual = 0.00940285, Final residual = 0.000592359, No Iterations 4
smoothSolver:  Solving for k, Initial residual = 0.151272, Final residual = 0.00986605, No Iterations 5
ExecutionTime = 0.11 s  ClockTime = 1 s

scalarTransport execute: age
smoothSolver:  Solving for age, Initial residual = 0.123576, Final residual = 0.0106316, No Iterations 9

Time = 7

smoothSolver:  Solving for Ux, Initial residual = 0.104702, Final residual = 0.00950971, No Iterations 4
smoothSolver:  Solving for Uy, Initial residual = 0.0675288, Final residual = 0.00456388, No Iterations 5
GAMG:  Solving for p, Initial residual = 0.0519071, Final residual = 0.00250438, No Iterations 3
time step continuity errors : sum local = 0.0125393, global = -0.000520571, cumulative = 0.0119786
smoothSolver:  Solving for omega, Initial residual = 0.0079065, Final residual = 0.000446066, No Iterations 4
smoothSolver:  Solving for k, Initial residual = 0.123404, Final residual = 0.00810942, No Iterations 5
ExecutionTime = 0.12 s  ClockTime = 1 s

scalarTransport execute: age
smoothSolver:  Solving for age, Initial residual = 0.107541, Final residual = 0.00969206, No Iterations 9

Time = 8

smoothSolver:  Solving for Ux, Initial residual = 0.0972251, Final residual = 0.00891255, No Iterations 4
smoothSolver:  Solving for Uy, Initial residual = 0.0666113, Final residual = 0.00454133, No Iterations 5
GAMG:  Solving for p, Initial residual = 0.0536215, Final residual = 0.00215083, No Iterations 3
time step continuity errors : sum local = 0.0116019, global = -0.000593456, cumulative = 0.0113851
smoothSolver:  Solving for omega, Initial residual = 0.00683263, Final residual = 0.00064794, No Iterations 3
smoothSolver:  Solving for k, Initial residual = 0.104197, Final residual = 0.00671166, No Iterations 5
ExecutionTime = 0.13 s  ClockTime = 1 s

scalarTransport execute: age
smoothSolver:  Solving for age, Initial residual = 0.0988062, Final residual = 0.00911562, No Iterations 9

Time = 9

smoothSolver:  Solving for Ux, Initial residual = 0.0911185, Final residual = 0.00826568, No Iterations 4
smoothSolver:  Solving for Uy, Initial residual = 0.0667943, Final residual = 0.00450181, No Iterations 5
GAMG:  Solving for p, Initial residual = 0.0557025, Final residual = 0.00243773, No Iterations 3
time step continuity errors : sum local = 0.0137973, global = -0.000789755, cumulative = 0.0105953
smoothSolver:  Solving for omega, Initial residual = 0.00641144, Final residual = 0.000563597, No Iterations 3
smoothSolver:  Solving for k, Initial residual = 0.0909074, Final residual = 0.00554102, No Iterations 5
ExecutionTime = 0.14 s  ClockTime = 1 s

scalarTransport execute: age
smoothSolver:  Solving for age, Initial residual = 0.0951917, Final residual = 0.00869723, No Iterations 9

Time = 10

smoothSolver:  Solving for Ux, Initial residual = 0.0873773, Final residual = 0.00782027, No Iterations 4
smoothSolver:  Solving for Uy, Initial residual = 0.0660374, Final residual = 0.00439501, No Iterations 5
GAMG:  Solving for p, Initial residual = 0.0575164, Final residual = 0.00281185, No Iterations 3
time step continuity errors : sum local = 0.0160756, global = -0.000645983, cumulative = 0.00994936
smoothSolver:  Solving for omega, Initial residual = 0.00634848, Final residual = 0.000516331, No Iterations 3
smoothSolver:  Solving for k, Initial residual = 0.0809943, Final residual = 0.00764277, No Iterations 4
ExecutionTime = 0.16 s  ClockTime = 1 s

scalarTransport execute: age
smoothSolver:  Solving for age, Initial residual = 0.095164, Final residual = 0.00846443, No Iterations 9

Time = 11

smoothSolver:  Solving for Ux, Initial residual = 0.0846277, Final residual = 0.00740141, No Iterations 4
smoothSolver:  Solving for Uy, Initial residual = 0.0657555, Final residual = 0.00428785, No Iterations 5
GAMG:  Solving for p, Initial residual = 0.0574638, Final residual = 0.00311417, No Iterations 3
time step continuity errors : sum local = 0.0179137, global = -0.000233215, cumulative = 0.00971615
smoothSolver:  Solving for omega, Initial residual = 0.00652411, Final residual = 0.00048296, No Iterations 3
smoothSolver:  Solving for k, Initial residual = 0.0744037, Final residual = 0.00640599, No Iterations 4
ExecutionTime = 0.17 s  ClockTime = 1 s

scalarTransport execute: age
smoothSolver:  Solving for age, Initial residual = 0.0978537, Final residual = 0.00868483, No Iterations 9

Time = 12

smoothSolver:  Solving for Ux, Initial residual = 0.082046, Final residual = 0.00699163, No Iterations 4
smoothSolver:  Solving for Uy, Initial residual = 0.0651663, Final residual = 0.00410928, No Iterations 5
GAMG:  Solving for p, Initial residual = 0.0591732, Final residual = 0.00304513, No Iterations 3
time step continuity errors : sum local = 0.0177016, global = 0.000354054, cumulative = 0.0100702
smoothSolver:  Solving for omega, Initial residual = 0.00655826, Final residual = 0.000452497, No Iterations 3
smoothSolver:  Solving for k, Initial residual = 0.0699208, Final residual = 0.00544031, No Iterations 4
ExecutionTime = 0.18 s  ClockTime = 1 s

scalarTransport execute: age
smoothSolver:  Solving for age, Initial residual = 0.0987829, Final residual = 0.00898578, No Iterations 9

Time = 13

smoothSolver:  Solving for Ux, Initial residual = 0.0780976, Final residual = 0.00658085, No Iterations 4
smoothSolver:  Solving for Uy, Initial residual = 0.0642812, Final residual = 0.00632214, No Iterations 4
GAMG:  Solving for p, Initial residual = 0.0590013, Final residual = 0.00280774, No Iterations 3
time step continuity errors : sum local = 0.0166896, global = 0.000943022, cumulative = 0.0110132
smoothSolver:  Solving for omega, Initial residual = 0.00634288, Final residual = 0.000425617, No Iterations 3
smoothSolver:  Solving for k, Initial residual = 0.0679304, Final residual = 0.00470481, No Iterations 4
ExecutionTime = 0.19 s  ClockTime = 1 s

scalarTransport execute: age
smoothSolver:  Solving for age, Initial residual = 0.0993168, Final residual = 0.00941287, No Iterations 9

Time = 14

smoothSolver:  Solving for Ux, Initial residual = 0.0742643, Final residual = 0.00607694, No Iterations 4
smoothSolver:  Solving for Uy, Initial residual = 0.0639497, Final residual = 0.00612093, No Iterations 4
GAMG:  Solving for p, Initial residual = 0.0605989, Final residual = 0.00233646, No Iterations 3
time step continuity errors : sum local = 0.0142262, global = 0.001458, cumulative = 0.0124712
smoothSolver:  Solving for omega, Initial residual = 0.00633163, Final residual = 0.000406054, No Iterations 3
smoothSolver:  Solving for k, Initial residual = 0.0672582, Final residual = 0.00412588, No Iterations 4
ExecutionTime = 0.2 s  ClockTime = 1 s

scalarTransport execute: age
smoothSolver:  Solving for age, Initial residual = 0.101587, Final residual = 0.00978866, No Iterations 9

Time = 15

smoothSolver:  Solving for Ux, Initial residual = 0.0714572, Final residual = 0.00566962, No Iterations 4
smoothSolver:  Solving for Uy, Initial residual = 0.063249, Final residual = 0.00585531, No Iterations 4
GAMG:  Solving for p, Initial residual = 0.0625648, Final residual = 0.00196561, No Iterations 3
time step continuity errors : sum local = 0.0121039, global = 0.00135997, cumulative = 0.0138312
smoothSolver:  Solving for omega, Initial residual = 0.00639927, Final residual = 0.000387973, No Iterations 3
smoothSolver:  Solving for k, Initial residual = 0.0665963, Final residual = 0.0066175, No Iterations 3
ExecutionTime = 0.21 s  ClockTime = 1 s

scalarTransport execute: age
smoothSolver:  Solving for age, Initial residual = 0.104776, Final residual = 0.0102842, No Iterations 9

Time = 16

smoothSolver:  Solving for Ux, Initial residual = 0.069771, Final residual = 0.00527666, No Iterations 4
smoothSolver:  Solving for Uy, Initial residual = 0.0620617, Final residual = 0.00553283, No Iterations 4
GAMG:  Solving for p, Initial residual = 0.0656838, Final residual = 0.00648966, No Iterations 2
time step continuity errors : sum local = 0.0398077, global = 0.00218053, cumulative = 0.0160117
smoothSolver:  Solving for omega, Initial residual = 0.00623305, Final residual = 0.000356991, No Iterations 3
smoothSolver:  Solving for k, Initial residual = 0.0647394, Final residual = 0.00607702, No Iterations 3
ExecutionTime = 0.22 s  ClockTime = 1 s

scalarTransport execute: age
smoothSolver:  Solving for age, Initial residual = 0.106101, Final residual = 0.0105152, No Iterations 9

Time = 17

smoothSolver:  Solving for Ux, Initial residual = 0.0686748, Final residual = 0.00498865, No Iterations 4
smoothSolver:  Solving for Uy, Initial residual = 0.0600322, Final residual = 0.00518511, No Iterations 4
GAMG:  Solving for p, Initial residual = 0.068869, Final residual = 0.00250816, No Iterations 3
time step continuity errors : sum local = 0.0155692, global = 0.00135338, cumulative = 0.0173651
smoothSolver:  Solving for omega, Initial residual = 0.00637626, Final residual = 0.000337849, No Iterations 3
smoothSolver:  Solving for k, Initial residual = 0.0652076, Final residual = 0.00560819, No Iterations 3
ExecutionTime = 0.23 s  ClockTime = 1 s

scalarTransport execute: age
smoothSolver:  Solving for age, Initial residual = 0.107698, Final residual = 0.00952783, No Iterations 10

Time = 18

smoothSolver:  Solving for Ux, Initial residual = 0.0670464, Final residual = 0.00455302, No Iterations 4
smoothSolver:  Solving for Uy, Initial residual = 0.0580896, Final residual = 0.00462121, No Iterations 4
GAMG:  Solving for p, Initial residual = 0.0693423, Final residual = 0.00692299, No Iterations 2
time step continuity errors : sum local = 0.0417574, global = 0.00183088, cumulative = 0.019196
smoothSolver:  Solving for omega, Initial residual = 0.00608472, Final residual = 0.000300045, No Iterations 3
smoothSolver:  Solving for k, Initial residual = 0.0630214, Final residual = 0.0050558, No Iterations 3
ExecutionTime = 0.24 s  ClockTime = 1 s

scalarTransport execute: age
smoothSolver:  Solving for age, Initial residual = 0.10662, Final residual = 0.0096135, No Iterations 10

Time = 19

smoothSolver:  Solving for Ux, Initial residual = 0.0649932, Final residual = 0.00426875, No Iterations 4
smoothSolver:  Solving for Uy, Initial residual = 0.0556069, Final residual = 0.00431989, No Iterations 4
GAMG:  Solving for p, Initial residual = 0.0740229, Final residual = 0.00705745, No Iterations 2
time step continuity errors : sum local = 0.042867, global = 0.00349876, cumulative = 0.0226947
smoothSolver:  Solving for omega, Initial residual = 0.00571392, Final residual = 0.000274634, No Iterations 3
smoothSolver:  Solving for k, Initial residual = 0.0616585, Final residual = 0.00460952, No Iterations 3
ExecutionTime = 0.25 s  ClockTime = 1 s

scalarTransport execute: age
smoothSolver:  Solving for age, Initial residual = 0.104551, Final residual = 0.00959499, No Iterations 10

Time = 20

smoothSolver:  Solving for Ux, Initial residual = 0.0627719, Final residual = 0.0039837, No Iterations 4
smoothSolver:  Solving for Uy, Initial residual = 0.0523506, Final residual = 0.0038231, No Iterations 4
GAMG:  Solving for p, Initial residual = 0.0742715, Final residual = 0.00595017, No Iterations 2
time step continuity errors : sum local = 0.0356932, global = 0.00442823, cumulative = 0.027123
smoothSolver:  Solving for omega, Initial residual = 0.00547956, Final residual = 0.000253193, No Iterations 3
smoothSolver:  Solving for k, Initial residual = 0.0582869, Final residual = 0.00421232, No Iterations 3
ExecutionTime = 0.27 s  ClockTime = 1 s

scalarTransport execute: age
smoothSolver:  Solving for age, Initial residual = 0.102126, Final residual = 0.00955703, No Iterations 10

Time = 21

smoothSolver:  Solving for Ux, Initial residual = 0.0607238, Final residual = 0.00371315, No Iterations 4
smoothSolver:  Solving for Uy, Initial residual = 0.0494834, Final residual = 0.00335081, No Iterations 4
GAMG:  Solving for p, Initial residual = 0.0745314, Final residual = 0.00582838, No Iterations 2
time step continuity errors : sum local = 0.0338465, global = 0.00392837, cumulative = 0.0310513
smoothSolver:  Solving for omega, Initial residual = 0.00506265, Final residual = 0.000227989, No Iterations 3
smoothSolver:  Solving for k, Initial residual = 0.0545272, Final residual = 0.00390951, No Iterations 3
ExecutionTime = 0.28 s  ClockTime = 1 s

scalarTransport execute: age
smoothSolver:  Solving for age, Initial residual = 0.0984077, Final residual = 0.00932364, No Iterations 10

Time = 22

smoothSolver:  Solving for Ux, Initial residual = 0.057885, Final residual = 0.00338525, No Iterations 4
smoothSolver:  Solving for Uy, Initial residual = 0.0463022, Final residual = 0.00301141, No Iterations 4
GAMG:  Solving for p, Initial residual = 0.0758765, Final residual = 0.00566909, No Iterations 2
time step continuity errors : sum local = 0.0312101, global = 0.00356246, cumulative = 0.0346138
smoothSolver:  Solving for omega, Initial residual = 0.00466677, Final residual = 0.000462046, No Iterations 2
smoothSolver:  Solving for k, Initial residual = 0.0503345, Final residual = 0.00368934, No Iterations 3
ExecutionTime = 0.29 s  ClockTime = 1 s

scalarTransport execute: age
smoothSolver:  Solving for age, Initial residual = 0.0939592, Final residual = 0.00873458, No Iterations 10

Time = 23

smoothSolver:  Solving for Ux, Initial residual = 0.053964, Final residual = 0.0030786, No Iterations 4
smoothSolver:  Solving for Uy, Initial residual = 0.0427106, Final residual = 0.00275876, No Iterations 4
GAMG:  Solving for p, Initial residual = 0.0748415, Final residual = 0.00567254, No Iterations 2
time step continuity errors : sum local = 0.0302164, global = 0.00351088, cumulative = 0.0381247
smoothSolver:  Solving for omega, Initial residual = 0.00452378, Final residual = 0.000443764, No Iterations 2
smoothSolver:  Solving for k, Initial residual = 0.0472238, Final residual = 0.00356028, No Iterations 3
ExecutionTime = 0.3 s  ClockTime = 1 s

scalarTransport execute: age
smoothSolver:  Solving for age, Initial residual = 0.0908183, Final residual = 0.00828143, No Iterations 10

Time = 24

smoothSolver:  Solving for Ux, Initial residual = 0.0499569, Final residual = 0.00281586, No Iterations 4
smoothSolver:  Solving for Uy, Initial residual = 0.0395693, Final residual = 0.00257, No Iterations 4
GAMG:  Solving for p, Initial residual = 0.0730383, Final residual = 0.00519154, No Iterations 2
time step continuity errors : sum local = 0.0263478, global = 0.00284252, cumulative = 0.0409672
smoothSolver:  Solving for omega, Initial residual = 0.00423852, Final residual = 0.00019554, No Iterations 3
smoothSolver:  Solving for k, Initial residual = 0.0452224, Final residual = 0.00345632, No Iterations 3
ExecutionTime = 0.31 s  ClockTime = 1 s

scalarTransport execute: age
smoothSolver:  Solving for age, Initial residual = 0.0878257, Final residual = 0.00800583, No Iterations 10

Time = 25

smoothSolver:  Solving for Ux, Initial residual = 0.0457994, Final residual = 0.00262452, No Iterations 4
smoothSolver:  Solving for Uy, Initial residual = 0.0372713, Final residual = 0.00244495, No Iterations 4
GAMG:  Solving for p, Initial residual = 0.0718447, Final residual = 0.00521488, No Iterations 2
time step continuity errors : sum local = 0.0251005, global = 0.0020067, cumulative = 0.0429739
smoothSolver:  Solving for omega, Initial residual = 0.00369419, Final residual = 0.000184219, No Iterations 3
smoothSolver:  Solving for k, Initial residual = 0.043634, Final residual = 0.00335614, No Iterations 3
ExecutionTime = 0.32 s  ClockTime = 1 s

scalarTransport execute: age
smoothSolver:  Solving for age, Initial residual = 0.0847529, Final residual = 0.00783761, No Iterations 10

Time = 26

smoothSolver:  Solving for Ux, Initial residual = 0.042162, Final residual = 0.00249536, No Iterations 4
smoothSolver:  Solving for Uy, Initial residual = 0.0354476, Final residual = 0.00238566, No Iterations 4
GAMG:  Solving for p, Initial residual = 0.0704524, Final residual = 0.00545227, No Iterations 2
time step continuity errors : sum local = 0.0254834, global = 0.00108858, cumulative = 0.0440625
smoothSolver:  Solving for omega, Initial residual = 0.00341853, Final residual = 0.000175388, No Iterations 3
smoothSolver:  Solving for k, Initial residual = 0.0423803, Final residual = 0.00327824, No Iterations 3
ExecutionTime = 0.33 s  ClockTime = 1 s

scalarTransport execute: age
smoothSolver:  Solving for age, Initial residual = 0.0817861, Final residual = 0.0075989, No Iterations 10

Time = 27

smoothSolver:  Solving for Ux, Initial residual = 0.0384662, Final residual = 0.00239684, No Iterations 4
smoothSolver:  Solving for Uy, Initial residual = 0.0345129, Final residual = 0.00241408, No Iterations 4
GAMG:  Solving for p, Initial residual = 0.0664178, Final residual = 0.00536753, No Iterations 2
time step continuity errors : sum local = 0.0248717, global = 0.000120099, cumulative = 0.0441826
smoothSolver:  Solving for omega, Initial residual = 0.0032339, Final residual = 0.000170541, No Iterations 3
smoothSolver:  Solving for k, Initial residual = 0.0413176, Final residual = 0.00325214, No Iterations 3
ExecutionTime = 0.34 s  ClockTime = 1 s

scalarTransport execute: age
smoothSolver:  Solving for age, Initial residual = 0.0790248, Final residual = 0.00727768, No Iterations 10

Time = 28

smoothSolver:  Solving for Ux, Initial residual = 0.0351121, Final residual = 0.00226815, No Iterations 4
smoothSolver:  Solving for Uy, Initial residual = 0.0340306, Final residual = 0.00246118, No Iterations 4
GAMG:  Solving for p, Initial residual = 0.0612486, Final residual = 0.00497066, No Iterations 2
time step continuity errors : sum local = 0.0231713, global = -0.000871084, cumulative = 0.0433115
smoothSolver:  Solving for omega, Initial residual = 0.00307941, Final residual = 0.000168292, No Iterations 3
smoothSolver:  Solving for k, Initial residual = 0.0406828, Final residual = 0.00330068, No Iterations 3
ExecutionTime = 0.35 s  ClockTime = 1 s

scalarTransport execute: age
smoothSolver:  Solving for age, Initial residual = 0.0764126, Final residual = 0.00695954, No Iterations 10

Time = 29

smoothSolver:  Solving for Ux, Initial residual = 0.0319574, Final residual = 0.00208322, No Iterations 4
smoothSolver:  Solving for Uy, Initial residual = 0.0335035, Final residual = 0.00252615, No Iterations 4
GAMG:  Solving for p, Initial residual = 0.0586709, Final residual = 0.004563, No Iterations 2
time step continuity errors : sum local = 0.0215337, global = -0.00172112, cumulative = 0.0415904
smoothSolver:  Solving for omega, Initial residual = 0.0029959, Final residual = 0.000168149, No Iterations 3
smoothSolver:  Solving for k, Initial residual = 0.0411091, Final residual = 0.00334838, No Iterations 3
ExecutionTime = 0.36 s  ClockTime = 1 s

scalarTransport execute: age
smoothSolver:  Solving for age, Initial residual = 0.0742434, Final residual = 0.00671687, No Iterations 10

Time = 30

smoothSolver:  Solving for Ux, Initial residual = 0.0291583, Final residual = 0.00188015, No Iterations 4
smoothSolver:  Solving for Uy, Initial residual = 0.0333688, Final residual = 0.00262818, No Iterations 4
GAMG:  Solving for p, Initial residual = 0.0566952, Final residual = 0.0043378, No Iterations 2
time step continuity errors : sum local = 0.0207135, global = -0.00218063, cumulative = 0.0394097
smoothSolver:  Solving for omega, Initial residual = 0.00291448, Final residual = 0.00016623, No Iterations 3
smoothSolver:  Solving for k, Initial residual = 0.0413431, Final residual = 0.00331916, No Iterations 3
ExecutionTime = 0.38 s  ClockTime = 1 s

scalarTransport execute: age
smoothSolver:  Solving for age, Initial residual = 0.0726621, Final residual = 0.0065824, No Iterations 10

Time = 31

smoothSolver:  Solving for Ux, Initial residual = 0.0265862, Final residual = 0.00168802, No Iterations 4
smoothSolver:  Solving for Uy, Initial residual = 0.0326708, Final residual = 0.00270154, No Iterations 4
GAMG:  Solving for p, Initial residual = 0.0550471, Final residual = 0.00435811, No Iterations 2
time step continuity errors : sum local = 0.0211018, global = -0.00213142, cumulative = 0.0372783
smoothSolver:  Solving for omega, Initial residual = 0.00292356, Final residual = 0.000163067, No Iterations 3
smoothSolver:  Solving for k, Initial residual = 0.040786, Final residual = 0.00318691, No Iterations 3
ExecutionTime = 0.39 s  ClockTime = 1 s

scalarTransport execute: age
smoothSolver:  Solving for age, Initial residual = 0.071047, Final residual = 0.00630471, No Iterations 10

Time = 32

smoothSolver:  Solving for Ux, Initial residual = 0.0243837, Final residual = 0.00151738, No Iterations 4
smoothSolver:  Solving for Uy, Initial residual = 0.0316902, Final residual = 0.00268503, No Iterations 4
GAMG:  Solving for p, Initial residual = 0.0532242, Final residual = 0.00455944, No Iterations 2
time step continuity errors : sum local = 0.0224514, global = -0.0015849, cumulative = 0.0356934
smoothSolver:  Solving for omega, Initial residual = 0.00291592, Final residual = 0.000157148, No Iterations 3
smoothSolver:  Solving for k, Initial residual = 0.0396229, Final residual = 0.00299929, No Iterations 3
ExecutionTime = 0.4 s  ClockTime = 1 s

scalarTransport execute: age
smoothSolver:  Solving for age, Initial residual = 0.0679306, Final residual = 0.00592124, No Iterations 10

Time = 33

smoothSolver:  Solving for Ux, Initial residual = 0.0228282, Final residual = 0.00137985, No Iterations 4
smoothSolver:  Solving for Uy, Initial residual = 0.0304007, Final residual = 0.0025765, No Iterations 4
GAMG:  Solving for p, Initial residual = 0.0517328, Final residual = 0.00469787, No Iterations 2
time step continuity errors : sum local = 0.0234632, global = -0.000585915, cumulative = 0.0351075
smoothSolver:  Solving for omega, Initial residual = 0.00288039, Final residual = 0.00014792, No Iterations 3
smoothSolver:  Solving for k, Initial residual = 0.0380312, Final residual = 0.00278957, No Iterations 3
ExecutionTime = 0.41 s  ClockTime = 1 s

scalarTransport execute: age
smoothSolver:  Solving for age, Initial residual = 0.0637834, Final residual = 0.00564067, No Iterations 10

Time = 34

smoothSolver:  Solving for Ux, Initial residual = 0.0218559, Final residual = 0.00128186, No Iterations 4
smoothSolver:  Solving for Uy, Initial residual = 0.0288412, Final residual = 0.00238995, No Iterations 4
GAMG:  Solving for p, Initial residual = 0.0499661, Final residual = 0.0045438, No Iterations 2
time step continuity errors : sum local = 0.0229164, global = 0.000753577, cumulative = 0.0358611
smoothSolver:  Solving for omega, Initial residual = 0.00274266, Final residual = 0.000136128, No Iterations 3
smoothSolver:  Solving for k, Initial residual = 0.0362528, Final residual = 0.00261123, No Iterations 3
ExecutionTime = 0.42 s  ClockTime = 1 s

scalarTransport execute: age
smoothSolver:  Solving for age, Initial residual = 0.0599235, Final residual = 0.00546341, No Iterations 10

Time = 35

smoothSolver:  Solving for Ux, Initial residual = 0.0212885, Final residual = 0.00121583, No Iterations 4
smoothSolver:  Solving for Uy, Initial residual = 0.0267369, Final residual = 0.00215823, No Iterations 4
GAMG:  Solving for p, Initial residual = 0.0479829, Final residual = 0.00314078, No Iterations 2
time step continuity errors : sum local = 0.0159155, global = 0.00180428, cumulative = 0.0376654
smoothSolver:  Solving for omega, Initial residual = 0.00255047, Final residual = 0.00012393, No Iterations 3
smoothSolver:  Solving for k, Initial residual = 0.0339888, Final residual = 0.00246221, No Iterations 3
ExecutionTime = 0.43 s  ClockTime = 1 s

scalarTransport execute: age
smoothSolver:  Solving for age, Initial residual = 0.0560174, Final residual = 0.00526788, No Iterations 10

Time = 36

smoothSolver:  Solving for Ux, Initial residual = 0.0212325, Final residual = 0.0011979, No Iterations 4
smoothSolver:  Solving for Uy, Initial residual = 0.024302, Final residual = 0.00189367, No Iterations 4
GAMG:  Solving for p, Initial residual = 0.0456496, Final residual = 0.00286703, No Iterations 2
time step continuity errors : sum local = 0.0143652, global = 0.00132519, cumulative = 0.0389906
smoothSolver:  Solving for omega, Initial residual = 0.00239356, Final residual = 0.000114039, No Iterations 3
smoothSolver:  Solving for k, Initial residual = 0.0317134, Final residual = 0.00237218, No Iterations 3
ExecutionTime = 0.44 s  ClockTime = 1 s

scalarTransport execute: age
smoothSolver:  Solving for age, Initial residual = 0.0520901, Final residual = 0.00500362, No Iterations 10

Time = 37

smoothSolver:  Solving for Ux, Initial residual = 0.0213082, Final residual = 0.00122638, No Iterations 4
smoothSolver:  Solving for Uy, Initial residual = 0.0227211, Final residual = 0.00166946, No Iterations 4
GAMG:  Solving for p, Initial residual = 0.0452466, Final residual = 0.00225048, No Iterations 2
time step continuity errors : sum local = 0.0107356, global = 0.00148547, cumulative = 0.040476
smoothSolver:  Solving for omega, Initial residual = 0.00226399, Final residual = 0.000106915, No Iterations 3
smoothSolver:  Solving for k, Initial residual = 0.0300968, Final residual = 0.00228335, No Iterations 3
ExecutionTime = 0.45 s  ClockTime = 1 s

scalarTransport execute: age
smoothSolver:  Solving for age, Initial residual = 0.0486571, Final residual = 0.00481342, No Iterations 10

Time = 38

smoothSolver:  Solving for Ux, Initial residual = 0.020521, Final residual = 0.00121119, No Iterations 4
smoothSolver:  Solving for Uy, Initial residual = 0.0210662, Final residual = 0.00152806, No Iterations 4
GAMG:  Solving for p, Initial residual = 0.0448772, Final residual = 0.00229362, No Iterations 2
time step continuity errors : sum local = 0.0108319, global = 0.00145895, cumulative = 0.041935
smoothSolver:  Solving for omega, Initial residual = 0.00234337, Final residual = 0.000227951, No Iterations 2
smoothSolver:  Solving for k, Initial residual = 0.0293468, Final residual = 0.00222259, No Iterations 3
ExecutionTime = 0.46 s  ClockTime = 1 s

scalarTransport execute: age
smoothSolver:  Solving for age, Initial residual = 0.0454164, Final residual = 0.0039601, No Iterations 11

Time = 39

smoothSolver:  Solving for Ux, Initial residual = 0.0199771, Final residual = 0.00119501, No Iterations 4
smoothSolver:  Solving for Uy, Initial residual = 0.0189372, Final residual = 0.001289, No Iterations 4
GAMG:  Solving for p, Initial residual = 0.0431519, Final residual = 0.0023037, No Iterations 2
time step continuity errors : sum local = 0.0107414, global = 0.00124361, cumulative = 0.0431786
smoothSolver:  Solving for omega, Initial residual = 0.00216396, Final residual = 0.000101574, No Iterations 3
smoothSolver:  Solving for k, Initial residual = 0.0287375, Final residual = 0.00216005, No Iterations 3
ExecutionTime = 0.48 s  ClockTime = 1 s

scalarTransport execute: age
smoothSolver:  Solving for age, Initial residual = 0.0423661, Final residual = 0.00373934, No Iterations 11

Time = 40

smoothSolver:  Solving for Ux, Initial residual = 0.0192354, Final residual = 0.00118106, No Iterations 4
smoothSolver:  Solving for Uy, Initial residual = 0.0174234, Final residual = 0.00112636, No Iterations 4
GAMG:  Solving for p, Initial residual = 0.0415044, Final residual = 0.00239782, No Iterations 2
time step continuity errors : sum local = 0.0110821, global = 0.00107608, cumulative = 0.0442547
smoothSolver:  Solving for omega, Initial residual = 0.00190208, Final residual = 9.23587e-05, No Iterations 3
smoothSolver:  Solving for k, Initial residual = 0.0280452, Final residual = 0.00211385, No Iterations 3
ExecutionTime = 0.49 s  ClockTime = 1 s

scalarTransport execute: age
smoothSolver:  Solving for age, Initial residual = 0.0401259, Final residual = 0.00356025, No Iterations 11

Time = 41

smoothSolver:  Solving for Ux, Initial residual = 0.0184255, Final residual = 0.00115589, No Iterations 4
smoothSolver:  Solving for Uy, Initial residual = 0.0164992, Final residual = 0.00106115, No Iterations 4
GAMG:  Solving for p, Initial residual = 0.0405149, Final residual = 0.00262722, No Iterations 2
time step continuity errors : sum local = 0.0120999, global = 0.00097285, cumulative = 0.0452275
smoothSolver:  Solving for omega, Initial residual = 0.00175476, Final residual = 8.53827e-05, No Iterations 3
smoothSolver:  Solving for k, Initial residual = 0.0271927, Final residual = 0.00210062, No Iterations 3
ExecutionTime = 0.5 s  ClockTime = 1 s

scalarTransport execute: age
smoothSolver:  Solving for age, Initial residual = 0.0383624, Final residual = 0.00342893, No Iterations 11

Time = 42

smoothSolver:  Solving for Ux, Initial residual = 0.0178338, Final residual = 0.00111903, No Iterations 4
smoothSolver:  Solving for Uy, Initial residual = 0.0161146, Final residual = 0.00105752, No Iterations 4
GAMG:  Solving for p, Initial residual = 0.0398235, Final residual = 0.00286982, No Iterations 2
time step continuity errors : sum local = 0.0131997, global = 0.000889921, cumulative = 0.0461175
smoothSolver:  Solving for omega, Initial residual = 0.00162346, Final residual = 7.96585e-05, No Iterations 3
smoothSolver:  Solving for k, Initial residual = 0.0264065, Final residual = 0.00208999, No Iterations 3
ExecutionTime = 0.51 s  ClockTime = 1 s

scalarTransport execute: age
smoothSolver:  Solving for age, Initial residual = 0.0376183, Final residual = 0.00331029, No Iterations 11

Time = 43

smoothSolver:  Solving for Ux, Initial residual = 0.0174676, Final residual = 0.00107657, No Iterations 4
smoothSolver:  Solving for Uy, Initial residual = 0.016065, Final residual = 0.0010905, No Iterations 4
GAMG:  Solving for p, Initial residual = 0.0396181, Final residual = 0.00312337, No Iterations 2
time step continuity errors : sum local = 0.0143662, global = 0.00082406, cumulative = 0.0469415
smoothSolver:  Solving for omega, Initial residual = 0.00157348, Final residual = 7.55299e-05, No Iterations 3
smoothSolver:  Solving for k, Initial residual = 0.02574, Final residual = 0.00207901, No Iterations 3
ExecutionTime = 0.52 s  ClockTime = 1 s

scalarTransport execute: age
smoothSolver:  Solving for age, Initial residual = 0.0373226, Final residual = 0.00372149, No Iterations 10

Time = 44

smoothSolver:  Solving for Ux, Initial residual = 0.017111, Final residual = 0.0010309, No Iterations 4
smoothSolver:  Solving for Uy, Initial residual = 0.0162143, Final residual = 0.00112983, No Iterations 4
GAMG:  Solving for p, Initial residual = 0.0399728, Final residual = 0.00334193, No Iterations 2
time step continuity errors : sum local = 0.0153826, global = 0.000765646, cumulative = 0.0477072
smoothSolver:  Solving for omega, Initial residual = 0.0015638, Final residual = 7.31663e-05, No Iterations 3
smoothSolver:  Solving for k, Initial residual = 0.025114, Final residual = 0.0020442, No Iterations 3
ExecutionTime = 0.53 s  ClockTime = 1 s

scalarTransport execute: age
smoothSolver:  Solving for age, Initial residual = 0.0371645, Final residual = 0.00360969, No Iterations 10

Time = 45

smoothSolver:  Solving for Ux, Initial residual = 0.0166822, Final residual = 0.000977962, No Iterations 4
smoothSolver:  Solving for Uy, Initial residual = 0.0163985, Final residual = 0.00116016, No Iterations 4
GAMG:  Solving for p, Initial residual = 0.0401161, Final residual = 0.00346661, No Iterations 2
time step continuity errors : sum local = 0.0159655, global = 0.000704473, cumulative = 0.0484116
smoothSolver:  Solving for omega, Initial residual = 0.00158492, Final residual = 7.2332e-05, No Iterations 3
smoothSolver:  Solving for k, Initial residual = 0.0243534, Final residual = 0.00197192, No Iterations 3
ExecutionTime = 0.55 s  ClockTime = 1 s

scalarTransport execute: age
smoothSolver:  Solving for age, Initial residual = 0.0369329, Final residual = 0.00348073, No Iterations 10

Time = 46

smoothSolver:  Solving for Ux, Initial residual = 0.016082, Final residual = 0.000917934, No Iterations 4
smoothSolver:  Solving for Uy, Initial residual = 0.0165054, Final residual = 0.00118023, No Iterations 4
GAMG:  Solving for p, Initial residual = 0.0398954, Final residual = 0.00342919, No Iterations 2
time step continuity errors : sum local = 0.015793, global = 0.000628256, cumulative = 0.0490399
smoothSolver:  Solving for omega, Initial residual = 0.00158735, Final residual = 7.21271e-05, No Iterations 3
smoothSolver:  Solving for k, Initial residual = 0.0235515, Final residual = 0.00187524, No Iterations 3
ExecutionTime = 0.56 s  ClockTime = 1 s

scalarTransport execute: age
smoothSolver:  Solving for age, Initial residual = 0.0365948, Final residual = 0.00335759, No Iterations 10

Time = 47

smoothSolver:  Solving for Ux, Initial residual = 0.0154352, Final residual = 0.000860123, No Iterations 4
smoothSolver:  Solving for Uy, Initial residual = 0.0162967, Final residual = 0.00117465, No Iterations 4
GAMG:  Solving for p, Initial residual = 0.0393957, Final residual = 0.00325872, No Iterations 2
time step continuity errors : sum local = 0.0149737, global = 0.000535109, cumulative = 0.049575
smoothSolver:  Solving for omega, Initial residual = 0.00158991, Final residual = 7.14138e-05, No Iterations 3
smoothSolver:  Solving for k, Initial residual = 0.022813, Final residual = 0.00176687, No Iterations 3
ExecutionTime = 0.57 s  ClockTime = 1 s

scalarTransport execute: age
smoothSolver:  Solving for age, Initial residual = 0.0356085, Final residual = 0.00324107, No Iterations 10

Time = 48

smoothSolver:  Solving for Ux, Initial residual = 0.0149068, Final residual = 0.00148536, No Iterations 3
smoothSolver:  Solving for Uy, Initial residual = 0.0158742, Final residual = 0.00114795, No Iterations 4
GAMG:  Solving for p, Initial residual = 0.0381278, Final residual = 0.00286061, No Iterations 2
time step continuity errors : sum local = 0.0130798, global = 0.000422601, cumulative = 0.0499976
smoothSolver:  Solving for omega, Initial residual = 0.00153988, Final residual = 6.92285e-05, No Iterations 3
smoothSolver:  Solving for k, Initial residual = 0.0221632, Final residual = 0.00166649, No Iterations 3
ExecutionTime = 0.58 s  ClockTime = 1 s

scalarTransport execute: age
smoothSolver:  Solving for age, Initial residual = 0.0341378, Final residual = 0.00311755, No Iterations 10

Time = 49

smoothSolver:  Solving for Ux, Initial residual = 0.0146309, Final residual = 0.000800142, No Iterations 4
smoothSolver:  Solving for Uy, Initial residual = 0.015372, Final residual = 0.00110142, No Iterations 4
GAMG:  Solving for p, Initial residual = 0.0382663, Final residual = 0.00280713, No Iterations 2
time step continuity errors : sum local = 0.0127471, global = 0.000305735, cumulative = 0.0503033
smoothSolver:  Solving for omega, Initial residual = 0.00151078, Final residual = 6.79883e-05, No Iterations 3
smoothSolver:  Solving for k, Initial residual = 0.0217828, Final residual = 0.0015849, No Iterations 3
ExecutionTime = 0.59 s  ClockTime = 1 s

scalarTransport execute: age
smoothSolver:  Solving for age, Initial residual = 0.0326039, Final residual = 0.0030278, No Iterations 10

Time = 50

smoothSolver:  Solving for Ux, Initial residual = 0.0141651, Final residual = 0.00139772, No Iterations 3
smoothSolver:  Solving for Uy, Initial residual = 0.01491, Final residual = 0.00105915, No Iterations 4
GAMG:  Solving for p, Initial residual = 0.037302, Final residual = 0.00241756, No Iterations 2
time step continuity errors : sum local = 0.0108874, global = 0.000180383, cumulative = 0.0504837
smoothSolver:  Solving for omega, Initial residual = 0.00146665, Final residual = 6.73626e-05, No Iterations 3
smoothSolver:  Solving for k, Initial residual = 0.0210595, Final residual = 0.0015068, No Iterations 3
ExecutionTime = 0.6 s  ClockTime = 1 s

scalarTransport execute: age
smoothSolver:  Solving for age, Initial residual = 0.0305208, Final residual = 0.00291466, No Iterations 10

Time = 51

smoothSolver:  Solving for Ux, Initial residual = 0.0139731, Final residual = 0.00138156, No Iterations 3
smoothSolver:  Solving for Uy, Initial residual = 0.0144702, Final residual = 0.00101843, No Iterations 4
GAMG:  Solving for p, Initial residual = 0.0368911, Final residual = 0.00229988, No Iterations 2
time step continuity errors : sum local = 0.0102588, global = 0.000109895, cumulative = 0.0505936
smoothSolver:  Solving for omega, Initial residual = 0.00145219, Final residual = 6.81915e-05, No Iterations 3
smoothSolver:  Solving for k, Initial residual = 0.0204489, Final residual = 0.00145773, No Iterations 3
ExecutionTime = 0.61 s  ClockTime = 1 s

scalarTransport execute: age
smoothSolver:  Solving for age, Initial residual = 0.0283451, Final residual = 0.00281501, No Iterations 10

Time = 52

smoothSolver:  Solving for Ux, Initial residual = 0.0137361, Final residual = 0.0013479, No Iterations 3
smoothSolver:  Solving for Uy, Initial residual = 0.0141114, Final residual = 0.000993707, No Iterations 4
GAMG:  Solving for p, Initial residual = 0.036398, Final residual = 0.00217224, No Iterations 2
time step continuity errors : sum local = 0.00961198, global = 4.25909e-05, cumulative = 0.0506362
smoothSolver:  Solving for omega, Initial residual = 0.00143745, Final residual = 6.92237e-05, No Iterations 3
smoothSolver:  Solving for k, Initial residual = 0.0198074, Final residual = 0.00142572, No Iterations 3
ExecutionTime = 0.62 s  ClockTime = 1 s

scalarTransport execute: age
smoothSolver:  Solving for age, Initial residual = 0.0267024, Final residual = 0.00236234, No Iterations 11

Time = 53

smoothSolver:  Solving for Ux, Initial residual = 0.0134442, Final residual = 0.00130943, No Iterations 3
smoothSolver:  Solving for Uy, Initial residual = 0.0137593, Final residual = 0.000973451, No Iterations 4
GAMG:  Solving for p, Initial residual = 0.035473, Final residual = 0.0020455, No Iterations 2
time step continuity errors : sum local = 0.00898269, global = -6.79515e-05, cumulative = 0.0505682
smoothSolver:  Solving for omega, Initial residual = 0.00143255, Final residual = 7.01321e-05, No Iterations 3
smoothSolver:  Solving for k, Initial residual = 0.019169, Final residual = 0.001403, No Iterations 3
ExecutionTime = 0.63 s  ClockTime = 1 s

scalarTransport execute: age
smoothSolver:  Solving for age, Initial residual = 0.0253955, Final residual = 0.00225764, No Iterations 11

Time = 54

smoothSolver:  Solving for Ux, Initial residual = 0.0132379, Final residual = 0.00127215, No Iterations 3
smoothSolver:  Solving for Uy, Initial residual = 0.0135035, Final residual = 0.000959623, No Iterations 4
GAMG:  Solving for p, Initial residual = 0.0343505, Final residual = 0.00195728, No Iterations 2
time step continuity errors : sum local = 0.00853117, global = -0.000155834, cumulative = 0.0504124
smoothSolver:  Solving for omega, Initial residual = 0.00143334, Final residual = 7.03267e-05, No Iterations 3
smoothSolver:  Solving for k, Initial residual = 0.0186768, Final residual = 0.00138776, No Iterations 3
ExecutionTime = 0.65 s  ClockTime = 1 s

scalarTransport execute: age
smoothSolver:  Solving for age, Initial residual = 0.0242888, Final residual = 0.00215825, No Iterations 11

Time = 55

smoothSolver:  Solving for Ux, Initial residual = 0.0130014, Final residual = 0.00124468, No Iterations 3
smoothSolver:  Solving for Uy, Initial residual = 0.0131919, Final residual = 0.000942662, No Iterations 4
GAMG:  Solving for p, Initial residual = 0.0331194, Final residual = 0.00186159, No Iterations 2
time step continuity errors : sum local = 0.00808383, global = -0.000249421, cumulative = 0.050163
smoothSolver:  Solving for omega, Initial residual = 0.00140021, Final residual = 6.91529e-05, No Iterations 3
smoothSolver:  Solving for k, Initial residual = 0.0182675, Final residual = 0.0013792, No Iterations 3
ExecutionTime = 0.66 s  ClockTime = 1 s

scalarTransport execute: age
smoothSolver:  Solving for age, Initial residual = 0.0232449, Final residual = 0.00205293, No Iterations 11

Time = 56

smoothSolver:  Solving for Ux, Initial residual = 0.0127605, Final residual = 0.00122644, No Iterations 3
smoothSolver:  Solving for Uy, Initial residual = 0.0129033, Final residual = 0.000918364, No Iterations 4
GAMG:  Solving for p, Initial residual = 0.0320616, Final residual = 0.00176384, No Iterations 2
time step continuity errors : sum local = 0.00764823, global = -0.000358117, cumulative = 0.0498049
smoothSolver:  Solving for omega, Initial residual = 0.00136515, Final residual = 6.67653e-05, No Iterations 3
smoothSolver:  Solving for k, Initial residual = 0.017915, Final residual = 0.00137168, No Iterations 3
ExecutionTime = 0.67 s  ClockTime = 1 s

scalarTransport execute: age
smoothSolver:  Solving for age, Initial residual = 0.0222926, Final residual = 0.00196347, No Iterations 11

Time = 57

smoothSolver:  Solving for Ux, Initial residual = 0.0124121, Final residual = 0.00121371, No Iterations 3
smoothSolver:  Solving for Uy, Initial residual = 0.0126096, Final residual = 0.000887265, No Iterations 4
GAMG:  Solving for p, Initial residual = 0.031477, Final residual = 0.00166204, No Iterations 2
time step continuity errors : sum local = 0.00721069, global = -0.000483968, cumulative = 0.0493209
smoothSolver:  Solving for omega, Initial residual = 0.00131925, Final residual = 6.3822e-05, No Iterations 3
smoothSolver:  Solving for k, Initial residual = 0.0175178, Final residual = 0.00135741, No Iterations 3
ExecutionTime = 0.68 s  ClockTime = 1 s

scalarTransport execute: age
smoothSolver:  Solving for age, Initial residual = 0.0215838, Final residual = 0.00187337, No Iterations 11

Time = 58

smoothSolver:  Solving for Ux, Initial residual = 0.012172, Final residual = 0.00119291, No Iterations 3
smoothSolver:  Solving for Uy, Initial residual = 0.0123166, Final residual = 0.000854955, No Iterations 4
GAMG:  Solving for p, Initial residual = 0.0309071, Final residual = 0.00156604, No Iterations 2
time step continuity errors : sum local = 0.00680501, global = -0.000552349, cumulative = 0.0487686
smoothSolver:  Solving for omega, Initial residual = 0.00127629, Final residual = 6.10945e-05, No Iterations 3
smoothSolver:  Solving for k, Initial residual = 0.0171313, Final residual = 0.00133228, No Iterations 3
ExecutionTime = 0.69 s  ClockTime = 1 s

scalarTransport execute: age
smoothSolver:  Solving for age, Initial residual = 0.0210604, Final residual = 0.00206632, No Iterations 10

Time = 59

smoothSolver:  Solving for Ux, Initial residual = 0.0118994, Final residual = 0.00115923, No Iterations 3
smoothSolver:  Solving for Uy, Initial residual = 0.0119576, Final residual = 0.000817683, No Iterations 4
GAMG:  Solving for p, Initial residual = 0.0299435, Final residual = 0.00152226, No Iterations 2
time step continuity errors : sum local = 0.00664487, global = -0.000566314, cumulative = 0.0482022
smoothSolver:  Solving for omega, Initial residual = 0.00125313, Final residual = 5.94094e-05, No Iterations 3
smoothSolver:  Solving for k, Initial residual = 0.0168301, Final residual = 0.00130414, No Iterations 3
ExecutionTime = 0.71 s  ClockTime = 1 s

scalarTransport execute: age
smoothSolver:  Solving for age, Initial residual = 0.0203749, Final residual = 0.00197391, No Iterations 10

Time = 60

smoothSolver:  Solving for Ux, Initial residual = 0.0115274, Final residual = 0.00110646, No Iterations 3
smoothSolver:  Solving for Uy, Initial residual = 0.0115005, Final residual = 0.000788537, No Iterations 4
GAMG:  Solving for p, Initial residual = 0.0289424, Final residual = 0.00152081, No Iterations 2
time step continuity errors : sum local = 0.00667256, global = -0.000554627, cumulative = 0.0476476
smoothSolver:  Solving for omega, Initial residual = 0.00121882, Final residual = 5.80537e-05, No Iterations 3
smoothSolver:  Solving for k, Initial residual = 0.0165068, Final residual = 0.00127758, No Iterations 3
ExecutionTime = 0.72 s  ClockTime = 1 s

scalarTransport execute: age
smoothSolver:  Solving for age, Initial residual = 0.0200364, Final residual = 0.0019056, No Iterations 10

Time = 61

smoothSolver:  Solving for Ux, Initial residual = 0.0110731, Final residual = 0.00103769, No Iterations 3
smoothSolver:  Solving for Uy, Initial residual = 0.011141, Final residual = 0.000759892, No Iterations 4
GAMG:  Solving for p, Initial residual = 0.0278021, Final residual = 0.00152213, No Iterations 2
time step continuity errors : sum local = 0.0067123, global = -0.000526909, cumulative = 0.0471207
smoothSolver:  Solving for omega, Initial residual = 0.00118601, Final residual = 5.62947e-05, No Iterations 3
smoothSolver:  Solving for k, Initial residual = 0.0162349, Final residual = 0.00125858, No Iterations 3
ExecutionTime = 0.73 s  ClockTime = 1 s

scalarTransport execute: age
smoothSolver:  Solving for age, Initial residual = 0.0196489, Final residual = 0.00184654, No Iterations 10

Time = 62

smoothSolver:  Solving for Ux, Initial residual = 0.0105823, Final residual = 0.000959655, No Iterations 3
smoothSolver:  Solving for Uy, Initial residual = 0.0107362, Final residual = 0.000726673, No Iterations 4
GAMG:  Solving for p, Initial residual = 0.0263919, Final residual = 0.00151671, No Iterations 2
time step continuity errors : sum local = 0.00671836, global = -0.000493257, cumulative = 0.0466275
smoothSolver:  Solving for omega, Initial residual = 0.00112498, Final residual = 5.38846e-05, No Iterations 3
smoothSolver:  Solving for k, Initial residual = 0.0158864, Final residual = 0.00124519, No Iterations 3
ExecutionTime = 0.74 s  ClockTime = 1 s

scalarTransport execute: age
smoothSolver:  Solving for age, Initial residual = 0.0190194, Final residual = 0.00177728, No Iterations 10

Time = 63

smoothSolver:  Solving for Ux, Initial residual = 0.0100359, Final residual = 0.000884828, No Iterations 3
smoothSolver:  Solving for Uy, Initial residual = 0.0103201, Final residual = 0.000685369, No Iterations 4
GAMG:  Solving for p, Initial residual = 0.0248821, Final residual = 0.00150872, No Iterations 2
time step continuity errors : sum local = 0.00670356, global = -0.000465881, cumulative = 0.0461616
smoothSolver:  Solving for omega, Initial residual = 0.0010594, Final residual = 5.0189e-05, No Iterations 3
smoothSolver:  Solving for k, Initial residual = 0.0154362, Final residual = 0.00122145, No Iterations 3
ExecutionTime = 0.75 s  ClockTime = 1 s

scalarTransport execute: age
smoothSolver:  Solving for age, Initial residual = 0.0182259, Final residual = 0.00170983, No Iterations 10

Time = 64

smoothSolver:  Solving for Ux, Initial residual = 0.00952848, Final residual = 0.00082161, No Iterations 3
smoothSolver:  Solving for Uy, Initial residual = 0.00983081, Final residual = 0.000641086, No Iterations 4
GAMG:  Solving for p, Initial residual = 0.0236167, Final residual = 0.00148216, No Iterations 2
time step continuity errors : sum local = 0.00659778, global = -0.000447176, cumulative = 0.0457144
smoothSolver:  Solving for omega, Initial residual = 0.0010139, Final residual = 4.67314e-05, No Iterations 3
smoothSolver:  Solving for k, Initial residual = 0.0149802, Final residual = 0.00118195, No Iterations 3
ExecutionTime = 0.76 s  ClockTime = 1 s

scalarTransport execute: age
smoothSolver:  Solving for age, Initial residual = 0.0174975, Final residual = 0.00165808, No Iterations 10

Time = 65

smoothSolver:  Solving for Ux, Initial residual = 0.00904781, Final residual = 0.000782374, No Iterations 3
smoothSolver:  Solving for Uy, Initial residual = 0.00927901, Final residual = 0.000601091, No Iterations 4
GAMG:  Solving for p, Initial residual = 0.0226518, Final residual = 0.0014378, No Iterations 2
time step continuity errors : sum local = 0.00639877, global = -0.000432209, cumulative = 0.0452822
smoothSolver:  Solving for omega, Initial residual = 0.000986343, Final residual = 4.5271e-05, No Iterations 3
smoothSolver:  Solving for k, Initial residual = 0.0145105, Final residual = 0.00113175, No Iterations 3
ExecutionTime = 0.77 s  ClockTime = 1 s

scalarTransport execute: age
smoothSolver:  Solving for age, Initial residual = 0.0171413, Final residual = 0.00165221, No Iterations 10

Time = 66

smoothSolver:  Solving for Ux, Initial residual = 0.00866527, Final residual = 0.000768399, No Iterations 3
smoothSolver:  Solving for Uy, Initial residual = 0.00880203, Final residual = 0.000565103, No Iterations 4
GAMG:  Solving for p, Initial residual = 0.022049, Final residual = 0.00143438, No Iterations 2
time step continuity errors : sum local = 0.00637428, global = -0.00041523, cumulative = 0.044867
smoothSolver:  Solving for omega, Initial residual = 0.000961448, Final residual = 4.48089e-05, No Iterations 3
smoothSolver:  Solving for k, Initial residual = 0.014039, Final residual = 0.00107743, No Iterations 3
ExecutionTime = 0.79 s  ClockTime = 1 s

scalarTransport execute: age
smoothSolver:  Solving for age, Initial residual = 0.0170782, Final residual = 0.00166301, No Iterations 10

Time = 67

smoothSolver:  Solving for Ux, Initial residual = 0.00838028, Final residual = 0.000766674, No Iterations 3
smoothSolver:  Solving for Uy, Initial residual = 0.00840165, Final residual = 0.00053258, No Iterations 4
GAMG:  Solving for p, Initial residual = 0.0216435, Final residual = 0.00145447, No Iterations 2
time step continuity errors : sum local = 0.00644578, global = -0.000394897, cumulative = 0.0444721
smoothSolver:  Solving for omega, Initial residual = 0.000949869, Final residual = 4.4029e-05, No Iterations 3
smoothSolver:  Solving for k, Initial residual = 0.0137228, Final residual = 0.00104714, No Iterations 3
ExecutionTime = 0.8 s  ClockTime = 1 s

scalarTransport execute: age
smoothSolver:  Solving for age, Initial residual = 0.0169517, Final residual = 0.00166829, No Iterations 10

Time = 68

smoothSolver:  Solving for Ux, Initial residual = 0.00812423, Final residual = 0.000768735, No Iterations 3
smoothSolver:  Solving for Uy, Initial residual = 0.00806185, Final residual = 0.0005028, No Iterations 4
GAMG:  Solving for p, Initial residual = 0.0214227, Final residual = 0.0014604, No Iterations 2
time step continuity errors : sum local = 0.00644724, global = -0.000373736, cumulative = 0.0440983
smoothSolver:  Solving for omega, Initial residual = 0.00091954, Final residual = 4.22759e-05, No Iterations 3
smoothSolver:  Solving for k, Initial residual = 0.0134977, Final residual = 0.00103232, No Iterations 3
ExecutionTime = 0.81 s  ClockTime = 1 s

scalarTransport execute: age
smoothSolver:  Solving for age, Initial residual = 0.0166949, Final residual = 0.00165711, No Iterations 10

Time = 69

smoothSolver:  Solving for Ux, Initial residual = 0.00789365, Final residual = 0.000769525, No Iterations 3
smoothSolver:  Solving for Uy, Initial residual = 0.00767244, Final residual = 0.00047409, No Iterations 4
GAMG:  Solving for p, Initial residual = 0.0212081, Final residual = 0.00149499, No Iterations 2
time step continuity errors : sum local = 0.00656829, global = -0.000356635, cumulative = 0.0437417
smoothSolver:  Solving for omega, Initial residual = 0.000890586, Final residual = 4.00228e-05, No Iterations 3
smoothSolver:  Solving for k, Initial residual = 0.0133507, Final residual = 0.00101545, No Iterations 3
ExecutionTime = 0.82 s  ClockTime = 1 s

scalarTransport execute: age
smoothSolver:  Solving for age, Initial residual = 0.0161762, Final residual = 0.00140286, No Iterations 11

Time = 70

smoothSolver:  Solving for Ux, Initial residual = 0.00767332, Final residual = 0.000764729, No Iterations 3
smoothSolver:  Solving for Uy, Initial residual = 0.00739413, Final residual = 0.000447195, No Iterations 4
GAMG:  Solving for p, Initial residual = 0.0209263, Final residual = 0.00156262, No Iterations 2
time step continuity errors : sum local = 0.0068279, global = -0.000349842, cumulative = 0.0433918
smoothSolver:  Solving for omega, Initial residual = 0.000868329, Final residual = 3.78864e-05, No Iterations 3
smoothSolver:  Solving for k, Initial residual = 0.0131244, Final residual = 0.000988665, No Iterations 3
ExecutionTime = 0.83 s  ClockTime = 1 s

scalarTransport execute: age
smoothSolver:  Solving for age, Initial residual = 0.0156451, Final residual = 0.00137174, No Iterations 11

Time = 71

smoothSolver:  Solving for Ux, Initial residual = 0.0074549, Final residual = 0.000426804, No Iterations 4
smoothSolver:  Solving for Uy, Initial residual = 0.00714942, Final residual = 0.000428533, No Iterations 4
GAMG:  Solving for p, Initial residual = 0.0211517, Final residual = 0.00173224, No Iterations 2
time step continuity errors : sum local = 0.00752536, global = -0.000359872, cumulative = 0.043032
smoothSolver:  Solving for omega, Initial residual = 0.000849157, Final residual = 8.46932e-05, No Iterations 2
smoothSolver:  Solving for k, Initial residual = 0.0128648, Final residual = 0.000957574, No Iterations 3
ExecutionTime = 0.84 s  ClockTime = 1 s

scalarTransport execute: age
smoothSolver:  Solving for age, Initial residual = 0.0155173, Final residual = 0.00136249, No Iterations 11

Time = 72

smoothSolver:  Solving for Ux, Initial residual = 0.00712432, Final residual = 0.000404499, No Iterations 4
smoothSolver:  Solving for Uy, Initial residual = 0.00705615, Final residual = 0.000422624, No Iterations 4
GAMG:  Solving for p, Initial residual = 0.020695, Final residual = 0.00163328, No Iterations 2
time step continuity errors : sum local = 0.00705948, global = -0.000383188, cumulative = 0.0426488
smoothSolver:  Solving for omega, Initial residual = 0.000872662, Final residual = 3.92577e-05, No Iterations 3
smoothSolver:  Solving for k, Initial residual = 0.0123756, Final residual = 0.000918561, No Iterations 3
ExecutionTime = 0.85 s  ClockTime = 1 s

scalarTransport execute: age
smoothSolver:  Solving for age, Initial residual = 0.0154076, Final residual = 0.00134955, No Iterations 11

Time = 73

smoothSolver:  Solving for Ux, Initial residual = 0.00680098, Final residual = 0.000677105, No Iterations 3
smoothSolver:  Solving for Uy, Initial residual = 0.00696405, Final residual = 0.000420829, No Iterations 4
GAMG:  Solving for p, Initial residual = 0.019559, Final residual = 0.00127372, No Iterations 2
time step continuity errors : sum local = 0.00548391, global = -0.000393457, cumulative = 0.0422553
smoothSolver:  Solving for omega, Initial residual = 0.000830676, Final residual = 3.7395e-05, No Iterations 3
smoothSolver:  Solving for k, Initial residual = 0.0117698, Final residual = 0.000875907, No Iterations 3
ExecutionTime = 0.86 s  ClockTime = 1 s

scalarTransport execute: age
smoothSolver:  Solving for age, Initial residual = 0.0153871, Final residual = 0.00132018, No Iterations 11

Time = 74

smoothSolver:  Solving for Ux, Initial residual = 0.00654615, Final residual = 0.000650707, No Iterations 3
smoothSolver:  Solving for Uy, Initial residual = 0.00674976, Final residual = 0.000418122, No Iterations 4
GAMG:  Solving for p, Initial residual = 0.0187003, Final residual = 0.00110395, No Iterations 2
time step continuity errors : sum local = 0.00473976, global = -0.000382445, cumulative = 0.0418729
smoothSolver:  Solving for omega, Initial residual = 0.000776064, Final residual = 3.54552e-05, No Iterations 3
smoothSolver:  Solving for k, Initial residual = 0.0112524, Final residual = 0.000837509, No Iterations 3
ExecutionTime = 0.87 s  ClockTime = 1 s

scalarTransport execute: age
smoothSolver:  Solving for age, Initial residual = 0.0152051, Final residual = 0.0015072, No Iterations 10

Time = 75

smoothSolver:  Solving for Ux, Initial residual = 0.00627837, Final residual = 0.000617694, No Iterations 3
smoothSolver:  Solving for Uy, Initial residual = 0.00652399, Final residual = 0.000409632, No Iterations 4
GAMG:  Solving for p, Initial residual = 0.0179014, Final residual = 0.00100798, No Iterations 2
time step continuity errors : sum local = 0.00431757, global = -0.000362917, cumulative = 0.04151
smoothSolver:  Solving for omega, Initial residual = 0.000726223, Final residual = 3.30335e-05, No Iterations 3
smoothSolver:  Solving for k, Initial residual = 0.010715, Final residual = 0.000798461, No Iterations 3
ExecutionTime = 0.88 s  ClockTime = 1 s

scalarTransport execute: age
smoothSolver:  Solving for age, Initial residual = 0.0148245, Final residual = 0.00129787, No Iterations 11

Time = 76

smoothSolver:  Solving for Ux, Initial residual = 0.00604329, Final residual = 0.000584715, No Iterations 3
smoothSolver:  Solving for Uy, Initial residual = 0.00640117, Final residual = 0.000392471, No Iterations 4
GAMG:  Solving for p, Initial residual = 0.0171676, Final residual = 0.000931079, No Iterations 2
time step continuity errors : sum local = 0.00397981, global = -0.00033952, cumulative = 0.0411704
smoothSolver:  Solving for omega, Initial residual = 0.000685439, Final residual = 3.02655e-05, No Iterations 3
smoothSolver:  Solving for k, Initial residual = 0.0102596, Final residual = 0.000754444, No Iterations 3
ExecutionTime = 0.9 s  ClockTime = 1 s

scalarTransport execute: age
smoothSolver:  Solving for age, Initial residual = 0.0143996, Final residual = 0.00128256, No Iterations 11

Time = 77

smoothSolver:  Solving for Ux, Initial residual = 0.00585377, Final residual = 0.00055984, No Iterations 3
smoothSolver:  Solving for Uy, Initial residual = 0.00619664, Final residual = 0.000370508, No Iterations 4
GAMG:  Solving for p, Initial residual = 0.0165674, Final residual = 0.000874252, No Iterations 2
time step continuity errors : sum local = 0.00372856, global = -0.00030994, cumulative = 0.0408605
smoothSolver:  Solving for omega, Initial residual = 0.000646112, Final residual = 2.75224e-05, No Iterations 3
smoothSolver:  Solving for k, Initial residual = 0.00975286, Final residual = 0.000702893, No Iterations 3
ExecutionTime = 0.91 s  ClockTime = 1 s

scalarTransport execute: age
smoothSolver:  Solving for age, Initial residual = 0.0139876, Final residual = 0.00123806, No Iterations 11

Time = 78

smoothSolver:  Solving for Ux, Initial residual = 0.00574107, Final residual = 0.00054605, No Iterations 3
smoothSolver:  Solving for Uy, Initial residual = 0.0060306, Final residual = 0.000349974, No Iterations 4
GAMG:  Solving for p, Initial residual = 0.0160717, Final residual = 0.000863592, No Iterations 2
time step continuity errors : sum local = 0.00367455, global = -0.000278736, cumulative = 0.0405818
smoothSolver:  Solving for omega, Initial residual = 0.000615824, Final residual = 6.12924e-05, No Iterations 2
smoothSolver:  Solving for k, Initial residual = 0.00924407, Final residual = 0.000645621, No Iterations 3
ExecutionTime = 0.92 s  ClockTime = 1 s

scalarTransport execute: age
smoothSolver:  Solving for age, Initial residual = 0.0137094, Final residual = 0.00136634, No Iterations 10

Time = 79

smoothSolver:  Solving for Ux, Initial residual = 0.00561143, Final residual = 0.000532685, No Iterations 3
smoothSolver:  Solving for Uy, Initial residual = 0.00589064, Final residual = 0.000332773, No Iterations 4
GAMG:  Solving for p, Initial residual = 0.0156082, Final residual = 0.000897614, No Iterations 2
time step continuity errors : sum local = 0.0038107, global = -0.000244399, cumulative = 0.0403374
smoothSolver:  Solving for omega, Initial residual = 0.000615531, Final residual = 2.72229e-05, No Iterations 3
smoothSolver:  Solving for k, Initial residual = 0.00871765, Final residual = 0.000589586, No Iterations 3
ExecutionTime = 0.93 s  ClockTime = 1 s

scalarTransport execute: age
smoothSolver:  Solving for age, Initial residual = 0.0134368, Final residual = 0.00133939, No Iterations 10

Time = 80

smoothSolver:  Solving for Ux, Initial residual = 0.0055024, Final residual = 0.000513539, No Iterations 3
smoothSolver:  Solving for Uy, Initial residual = 0.0057814, Final residual = 0.000327404, No Iterations 4
GAMG:  Solving for p, Initial residual = 0.0150305, Final residual = 0.000942988, No Iterations 2
time step continuity errors : sum local = 0.00399678, global = -0.000206326, cumulative = 0.040131
smoothSolver:  Solving for omega, Initial residual = 0.000571874, Final residual = 2.57554e-05, No Iterations 3
smoothSolver:  Solving for k, Initial residual = 0.00826295, Final residual = 0.000541105, No Iterations 3
ExecutionTime = 0.94 s  ClockTime = 1 s

scalarTransport execute: age
smoothSolver:  Solving for age, Initial residual = 0.0132081, Final residual = 0.00130911, No Iterations 10

Time = 81

smoothSolver:  Solving for Ux, Initial residual = 0.00533727, Final residual = 0.000487864, No Iterations 3
smoothSolver:  Solving for Uy, Initial residual = 0.0056405, Final residual = 0.000329695, No Iterations 4
GAMG:  Solving for p, Initial residual = 0.0143238, Final residual = 0.000978036, No Iterations 2
time step continuity errors : sum local = 0.00414215, global = -0.000175229, cumulative = 0.0399558
smoothSolver:  Solving for omega, Initial residual = 0.000534861, Final residual = 2.50077e-05, No Iterations 3
smoothSolver:  Solving for k, Initial residual = 0.00788713, Final residual = 0.000507838, No Iterations 3
ExecutionTime = 0.95 s  ClockTime = 1 s

scalarTransport execute: age
smoothSolver:  Solving for age, Initial residual = 0.0127901, Final residual = 0.00126908, No Iterations 10

Time = 82

smoothSolver:  Solving for Ux, Initial residual = 0.00514882, Final residual = 0.000464542, No Iterations 3
smoothSolver:  Solving for Uy, Initial residual = 0.00543564, Final residual = 0.000332359, No Iterations 4
GAMG:  Solving for p, Initial residual = 0.0135321, Final residual = 0.000964791, No Iterations 2
time step continuity errors : sum local = 0.00408386, global = -0.000142537, cumulative = 0.0398133
smoothSolver:  Solving for omega, Initial residual = 0.000505571, Final residual = 2.39801e-05, No Iterations 3
smoothSolver:  Solving for k, Initial residual = 0.00762747, Final residual = 0.000493869, No Iterations 3
ExecutionTime = 0.96 s  ClockTime = 1 s

scalarTransport execute: age
smoothSolver:  Solving for age, Initial residual = 0.0121997, Final residual = 0.00105415, No Iterations 11

Time = 83

smoothSolver:  Solving for Ux, Initial residual = 0.00498114, Final residual = 0.000454808, No Iterations 3
smoothSolver:  Solving for Uy, Initial residual = 0.00521566, Final residual = 0.000327574, No Iterations 4
GAMG:  Solving for p, Initial residual = 0.0128026, Final residual = 0.000930931, No Iterations 2
time step continuity errors : sum local = 0.00394027, global = -0.00010886, cumulative = 0.0397044
smoothSolver:  Solving for omega, Initial residual = 0.000479962, Final residual = 2.28759e-05, No Iterations 3
smoothSolver:  Solving for k, Initial residual = 0.00739527, Final residual = 0.000489, No Iterations 3
ExecutionTime = 0.97 s  ClockTime = 1 s

scalarTransport execute: age
smoothSolver:  Solving for age, Initial residual = 0.0114953, Final residual = 0.00100483, No Iterations 11

Time = 84

smoothSolver:  Solving for Ux, Initial residual = 0.00486665, Final residual = 0.000457039, No Iterations 3
smoothSolver:  Solving for Uy, Initial residual = 0.0049478, Final residual = 0.000319101, No Iterations 4
GAMG:  Solving for p, Initial residual = 0.0122636, Final residual = 0.00089928, No Iterations 2
time step continuity errors : sum local = 0.00380625, global = -7.72176e-05, cumulative = 0.0396272
smoothSolver:  Solving for omega, Initial residual = 0.00047163, Final residual = 2.2145e-05, No Iterations 3
smoothSolver:  Solving for k, Initial residual = 0.00720763, Final residual = 0.000485499, No Iterations 3
ExecutionTime = 0.98 s  ClockTime = 1 s

scalarTransport execute: age
smoothSolver:  Solving for age, Initial residual = 0.0110569, Final residual = 0.000957452, No Iterations 11

Time = 85

smoothSolver:  Solving for Ux, Initial residual = 0.00473188, Final residual = 0.000460066, No Iterations 3
smoothSolver:  Solving for Uy, Initial residual = 0.0047857, Final residual = 0.000311157, No Iterations 4
GAMG:  Solving for p, Initial residual = 0.011792, Final residual = 0.000891776, No Iterations 2
time step continuity errors : sum local = 0.00377516, global = -4.48117e-05, cumulative = 0.0395824
smoothSolver:  Solving for omega, Initial residual = 0.000473144, Final residual = 2.21787e-05, No Iterations 3
smoothSolver:  Solving for k, Initial residual = 0.00707428, Final residual = 0.000478285, No Iterations 3
ExecutionTime = 0.99 s  ClockTime = 1 s

scalarTransport execute: age
smoothSolver:  Solving for age, Initial residual = 0.0106954, Final residual = 0.000923915, No Iterations 11

Time = 86

smoothSolver:  Solving for Ux, Initial residual = 0.0045874, Final residual = 0.000456021, No Iterations 3
smoothSolver:  Solving for Uy, Initial residual = 0.00470644, Final residual = 0.000305141, No Iterations 4
GAMG:  Solving for p, Initial residual = 0.0114847, Final residual = 0.000908517, No Iterations 2
time step continuity errors : sum local = 0.00384564, global = -1.01645e-05, cumulative = 0.0395722
smoothSolver:  Solving for omega, Initial residual = 0.000475817, Final residual = 2.21211e-05, No Iterations 3
smoothSolver:  Solving for k, Initial residual = 0.00693232, Final residual = 0.000467692, No Iterations 3
ExecutionTime = 1 s  ClockTime = 1 s

scalarTransport execute: age
smoothSolver:  Solving for age, Initial residual = 0.0104286, Final residual = 0.00104118, No Iterations 10

Time = 87

smoothSolver:  Solving for Ux, Initial residual = 0.00443194, Final residual = 0.000440163, No Iterations 3
smoothSolver:  Solving for Uy, Initial residual = 0.0046189, Final residual = 0.000301078, No Iterations 4
GAMG:  Solving for p, Initial residual = 0.011192, Final residual = 0.000921147, No Iterations 2
time step continuity errors : sum local = 0.00389893, global = 2.81398e-05, cumulative = 0.0396004
smoothSolver:  Solving for omega, Initial residual = 0.000470584, Final residual = 2.16848e-05, No Iterations 3
smoothSolver:  Solving for k, Initial residual = 0.00676237, Final residual = 0.000451479, No Iterations 3
ExecutionTime = 1.02 s  ClockTime = 1 s

scalarTransport execute: age
smoothSolver:  Solving for age, Initial residual = 0.010182, Final residual = 0.000884947, No Iterations 11

Time = 88

smoothSolver:  Solving for Ux, Initial residual = 0.00427568, Final residual = 0.000416006, No Iterations 3
smoothSolver:  Solving for Uy, Initial residual = 0.00448784, Final residual = 0.000296893, No Iterations 4
GAMG:  Solving for p, Initial residual = 0.0108496, Final residual = 0.000905248, No Iterations 2
time step continuity errors : sum local = 0.00382788, global = 6.95972e-05, cumulative = 0.03967
smoothSolver:  Solving for omega, Initial residual = 0.000457325, Final residual = 2.10444e-05, No Iterations 3
smoothSolver:  Solving for k, Initial residual = 0.0065026, Final residual = 0.00042802, No Iterations 3
ExecutionTime = 1.02 s  ClockTime = 1 s

scalarTransport execute: age
smoothSolver:  Solving for age, Initial residual = 0.00988851, Final residual = 0.000865576, No Iterations 11

Time = 89

smoothSolver:  Solving for Ux, Initial residual = 0.00409118, Final residual = 0.000391103, No Iterations 3
smoothSolver:  Solving for Uy, Initial residual = 0.00432953, Final residual = 0.000285631, No Iterations 4
GAMG:  Solving for p, Initial residual = 0.0104671, Final residual = 0.00087245, No Iterations 2
time step continuity errors : sum local = 0.00368293, global = 0.000112339, cumulative = 0.0397823
smoothSolver:  Solving for omega, Initial residual = 0.000436012, Final residual = 1.97446e-05, No Iterations 3
smoothSolver:  Solving for k, Initial residual = 0.00617091, Final residual = 0.000402677, No Iterations 3
ExecutionTime = 1.03 s  ClockTime = 1 s

scalarTransport execute: age
smoothSolver:  Solving for age, Initial residual = 0.00961004, Final residual = 0.000852151, No Iterations 11

Time = 90

smoothSolver:  Solving for Ux, Initial residual = 0.00390145, Final residual = 0.000372768, No Iterations 3
smoothSolver:  Solving for Uy, Initial residual = 0.00415933, Final residual = 0.00026808, No Iterations 4
GAMG:  Solving for p, Initial residual = 0.0101461, Final residual = 0.000831114, No Iterations 2
time step continuity errors : sum local = 0.00350064, global = 0.000147891, cumulative = 0.0399302
smoothSolver:  Solving for omega, Initial residual = 0.000415727, Final residual = 1.8187e-05, No Iterations 3
smoothSolver:  Solving for k, Initial residual = 0.00584682, Final residual = 0.000377852, No Iterations 3
ExecutionTime = 1.04 s  ClockTime = 1 s

scalarTransport execute: age
smoothSolver:  Solving for age, Initial residual = 0.00930039, Final residual = 0.000838917, No Iterations 11

Time = 91

smoothSolver:  Solving for Ux, Initial residual = 0.00376212, Final residual = 0.000362966, No Iterations 3
smoothSolver:  Solving for Uy, Initial residual = 0.00395161, Final residual = 0.000252442, No Iterations 4
GAMG:  Solving for p, Initial residual = 0.00980234, Final residual = 0.000778334, No Iterations 2
time step continuity errors : sum local = 0.00326945, global = 0.000156982, cumulative = 0.0400872
smoothSolver:  Solving for omega, Initial residual = 0.000403942, Final residual = 3.97763e-05, No Iterations 2
smoothSolver:  Solving for k, Initial residual = 0.00553225, Final residual = 0.000352516, No Iterations 3
ExecutionTime = 1.05 s  ClockTime = 1 s

scalarTransport execute: age
smoothSolver:  Solving for age, Initial residual = 0.00903893, Final residual = 0.000832052, No Iterations 11

Time = 92

smoothSolver:  Solving for Ux, Initial residual = 0.00362636, Final residual = 0.000357268, No Iterations 3
smoothSolver:  Solving for Uy, Initial residual = 0.00376222, Final residual = 0.000237853, No Iterations 4
GAMG:  Solving for p, Initial residual = 0.0093548, Final residual = 0.000777053, No Iterations 2
time step continuity errors : sum local = 0.0032535, global = 0.00014883, cumulative = 0.040236
smoothSolver:  Solving for omega, Initial residual = 0.00041257, Final residual = 1.84493e-05, No Iterations 3
smoothSolver:  Solving for k, Initial residual = 0.00521218, Final residual = 0.000326704, No Iterations 3
ExecutionTime = 1.06 s  ClockTime = 1 s

scalarTransport execute: age
smoothSolver:  Solving for age, Initial residual = 0.0088947, Final residual = 0.000834373, No Iterations 11

Time = 93

smoothSolver:  Solving for Ux, Initial residual = 0.00347992, Final residual = 0.000347678, No Iterations 3
smoothSolver:  Solving for Uy, Initial residual = 0.00358013, Final residual = 0.000226271, No Iterations 4
GAMG:  Solving for p, Initial residual = 0.00885453, Final residual = 0.000773426, No Iterations 2
time step continuity errors : sum local = 0.00322836, global = 0.000123696, cumulative = 0.0403597
smoothSolver:  Solving for omega, Initial residual = 0.000398085, Final residual = 1.75041e-05, No Iterations 3
smoothSolver:  Solving for k, Initial residual = 0.00487861, Final residual = 0.000304564, No Iterations 3
ExecutionTime = 1.07 s  ClockTime = 2 s

scalarTransport execute: age
smoothSolver:  Solving for age, Initial residual = 0.00870231, Final residual = 0.000833243, No Iterations 11

Time = 94

smoothSolver:  Solving for Ux, Initial residual = 0.00331108, Final residual = 0.000330542, No Iterations 3
smoothSolver:  Solving for Uy, Initial residual = 0.00339424, Final residual = 0.000217248, No Iterations 4
GAMG:  Solving for p, Initial residual = 0.00828049, Final residual = 0.000711917, No Iterations 2
time step continuity errors : sum local = 0.00296336, global = 8.16074e-05, cumulative = 0.0404413
smoothSolver:  Solving for omega, Initial residual = 0.000375401, Final residual = 1.65086e-05, No Iterations 3
smoothSolver:  Solving for k, Initial residual = 0.00452938, Final residual = 0.000286974, No Iterations 3
ExecutionTime = 1.08 s  ClockTime = 2 s

scalarTransport execute: age
smoothSolver:  Solving for age, Initial residual = 0.00843864, Final residual = 0.000827012, No Iterations 11

Time = 95

smoothSolver:  Solving for Ux, Initial residual = 0.00310391, Final residual = 0.000172919, No Iterations 4
smoothSolver:  Solving for Uy, Initial residual = 0.00317842, Final residual = 0.000208152, No Iterations 4
GAMG:  Solving for p, Initial residual = 0.00789279, Final residual = 0.000633259, No Iterations 2
time step continuity errors : sum local = 0.00262955, global = 2.82646e-05, cumulative = 0.0404696
smoothSolver:  Solving for omega, Initial residual = 0.000347028, Final residual = 1.53348e-05, No Iterations 3
smoothSolver:  Solving for k, Initial residual = 0.004188, Final residual = 0.000271392, No Iterations 3
ExecutionTime = 1.09 s  ClockTime = 2 s

scalarTransport execute: age
smoothSolver:  Solving for age, Initial residual = 0.00817968, Final residual = 0.000811961, No Iterations 11

Time = 96

smoothSolver:  Solving for Ux, Initial residual = 0.00286117, Final residual = 0.000159039, No Iterations 4
smoothSolver:  Solving for Uy, Initial residual = 0.00296526, Final residual = 0.000197695, No Iterations 4
GAMG:  Solving for p, Initial residual = 0.00744456, Final residual = 0.00052297, No Iterations 2
[...]

Time = 661

smoothSolver:  Solving for Ux, Initial residual = 1.31603e-06, Final residual = 8.24131e-08, No Iterations 3
smoothSolver:  Solving for Uy, Initial residual = 1.22134e-06, Final residual = 9.47533e-08, No Iterations 3
GAMG:  Solving for p, Initial residual = 3.36685e-06, Final residual = 1.96738e-07, No Iterations 2
time step continuity errors : sum local = 8.06663e-07, global = 6.0628e-08, cumulative = 0.0370625
smoothSolver:  Solving for omega, Initial residual = 1.25906e-07, Final residual = 1.0566e-08, No Iterations 2
smoothSolver:  Solving for k, Initial residual = 1.63111e-06, Final residual = 6.68243e-08, No Iterations 3
ExecutionTime = 7.41 s  ClockTime = 8 s

scalarTransport execute: age
smoothSolver:  Solving for age, Initial residual = 0.000369266, Final residual = 3.55729e-05, No Iterations 14

Time = 662

smoothSolver:  Solving for Ux, Initial residual = 1.27649e-06, Final residual = 8.17178e-08, No Iterations 3
smoothSolver:  Solving for Uy, Initial residual = 1.17456e-06, Final residual = 9.23226e-08, No Iterations 3
GAMG:  Solving for p, Initial residual = 3.1388e-06, Final residual = 2.01779e-07, No Iterations 2
time step continuity errors : sum local = 8.27334e-07, global = 6.68421e-08, cumulative = 0.0370625
smoothSolver:  Solving for omega, Initial residual = 1.27186e-07, Final residual = 1.04009e-08, No Iterations 2
smoothSolver:  Solving for k, Initial residual = 1.61325e-06, Final residual = 6.46125e-08, No Iterations 3
ExecutionTime = 7.42 s  ClockTime = 8 s

scalarTransport execute: age
smoothSolver:  Solving for age, Initial residual = 0.000368582, Final residual = 3.55292e-05, No Iterations 14

Time = 663

smoothSolver:  Solving for Ux, Initial residual = 1.22432e-06, Final residual = 7.74864e-08, No Iterations 3
smoothSolver:  Solving for Uy, Initial residual = 1.12107e-06, Final residual = 8.72206e-08, No Iterations 3
GAMG:  Solving for p, Initial residual = 2.90304e-06, Final residual = 2.03653e-07, No Iterations 2
time step continuity errors : sum local = 8.35015e-07, global = 6.79151e-08, cumulative = 0.0370626
smoothSolver:  Solving for omega, Initial residual = 1.28214e-07, Final residual = 1.02935e-08, No Iterations 2
smoothSolver:  Solving for k, Initial residual = 1.56962e-06, Final residual = 1.52321e-07, No Iterations 2
ExecutionTime = 7.43 s  ClockTime = 8 s

scalarTransport execute: age
smoothSolver:  Solving for age, Initial residual = 0.000367905, Final residual = 3.5483e-05, No Iterations 14

Time = 664

smoothSolver:  Solving for Ux, Initial residual = 1.17181e-06, Final residual = 7.15831e-08, No Iterations 3
smoothSolver:  Solving for Uy, Initial residual = 1.06945e-06, Final residual = 8.15314e-08, No Iterations 3
GAMG:  Solving for p, Initial residual = 2.63808e-06, Final residual = 1.98374e-07, No Iterations 2
time step continuity errors : sum local = 8.13372e-07, global = 6.26349e-08, cumulative = 0.0370627
smoothSolver:  Solving for omega, Initial residual = 1.25423e-07, Final residual = 9.92748e-09, No Iterations 2
smoothSolver:  Solving for k, Initial residual = 1.54036e-06, Final residual = 1.47872e-07, No Iterations 2
ExecutionTime = 7.44 s  ClockTime = 8 s

scalarTransport execute: age
smoothSolver:  Solving for age, Initial residual = 0.00036723, Final residual = 3.54304e-05, No Iterations 14

Time = 665

smoothSolver:  Solving for Ux, Initial residual = 1.12019e-06, Final residual = 6.77877e-08, No Iterations 3
smoothSolver:  Solving for Uy, Initial residual = 1.01458e-06, Final residual = 7.51929e-08, No Iterations 3
GAMG:  Solving for p, Initial residual = 2.45281e-06, Final residual = 1.87656e-07, No Iterations 2
time step continuity errors : sum local = 7.69424e-07, global = 4.96061e-08, cumulative = 0.0370627
smoothSolver:  Solving for omega, Initial residual = 1.20217e-07, Final residual = 9.35382e-09, No Iterations 2
smoothSolver:  Solving for k, Initial residual = 1.48293e-06, Final residual = 1.40518e-07, No Iterations 2
ExecutionTime = 7.45 s  ClockTime = 8 s

scalarTransport execute: age
smoothSolver:  Solving for age, Initial residual = 0.000366559, Final residual = 3.53685e-05, No Iterations 14

Time = 666

smoothSolver:  Solving for Ux, Initial residual = 1.071e-06, Final residual = 6.59332e-08, No Iterations 3
smoothSolver:  Solving for Uy, Initial residual = 9.53032e-07, Final residual = 6.7772e-08, No Iterations 3
GAMG:  Solving for p, Initial residual = 2.34885e-06, Final residual = 1.72139e-07, No Iterations 2
time step continuity errors : sum local = 7.05804e-07, global = 3.59716e-08, cumulative = 0.0370627
smoothSolver:  Solving for omega, Initial residual = 1.13071e-07, Final residual = 8.63493e-09, No Iterations 2
smoothSolver:  Solving for k, Initial residual = 1.41684e-06, Final residual = 1.33513e-07, No Iterations 2
ExecutionTime = 7.47 s  ClockTime = 8 s

scalarTransport execute: age
smoothSolver:  Solving for age, Initial residual = 0.000365903, Final residual = 3.52992e-05, No Iterations 14

Time = 667

smoothSolver:  Solving for Ux, Initial residual = 1.03594e-06, Final residual = 6.64231e-08, No Iterations 3
smoothSolver:  Solving for Uy, Initial residual = 8.87996e-07, Final residual = 6.05695e-08, No Iterations 3
GAMG:  Solving for p, Initial residual = 2.28461e-06, Final residual = 1.54756e-07, No Iterations 2
time step continuity errors : sum local = 6.34529e-07, global = 1.68494e-08, cumulative = 0.0370628
smoothSolver:  Solving for omega, Initial residual = 1.04142e-07, Final residual = 7.75189e-09, No Iterations 2
smoothSolver:  Solving for k, Initial residual = 1.36889e-06, Final residual = 1.31393e-07, No Iterations 2
ExecutionTime = 7.48 s  ClockTime = 8 s

scalarTransport execute: age
smoothSolver:  Solving for age, Initial residual = 0.000365265, Final residual = 3.52257e-05, No Iterations 14

Time = 668

smoothSolver:  Solving for Ux, Initial residual = 9.98965e-07, Final residual = 6.65759e-08, No Iterations 3
smoothSolver:  Solving for Uy, Initial residual = 8.35936e-07, Final residual = 5.54535e-08, No Iterations 3
GAMG:  Solving for p, Initial residual = 2.233e-06, Final residual = 1.53226e-07, No Iterations 2
time step continuity errors : sum local = 6.28256e-07, global = -5.29521e-09, cumulative = 0.0370628
smoothSolver:  Solving for omega, Initial residual = 9.82519e-08, Final residual = 7.12768e-09, No Iterations 2
smoothSolver:  Solving for k, Initial residual = 1.33126e-06, Final residual = 1.3057e-07, No Iterations 2
ExecutionTime = 7.49 s  ClockTime = 8 s

scalarTransport execute: age
smoothSolver:  Solving for age, Initial residual = 0.000364633, Final residual = 3.51516e-05, No Iterations 14

Time = 669

smoothSolver:  Solving for Ux, Initial residual = 9.53612e-07, Final residual = 6.61452e-08, No Iterations 3
smoothSolver:  Solving for Uy, Initial residual = 8.02456e-07, Final residual = 5.49057e-08, No Iterations 3
GAMG:  Solving for p, Initial residual = 2.17473e-06, Final residual = 1.59224e-07, No Iterations 2
time step continuity errors : sum local = 6.52846e-07, global = -2.77699e-08, cumulative = 0.0370627
smoothSolver:  Solving for omega, Initial residual = 9.59654e-08, Final residual = 6.8664e-09, No Iterations 2
smoothSolver:  Solving for k, Initial residual = 1.29474e-06, Final residual = 1.26861e-07, No Iterations 2
ExecutionTime = 7.5 s  ClockTime = 8 s

scalarTransport execute: age
smoothSolver:  Solving for age, Initial residual = 0.000364004, Final residual = 3.50802e-05, No Iterations 14

Time = 670

smoothSolver:  Solving for Ux, Initial residual = 9.09955e-07, Final residual = 6.42314e-08, No Iterations 3
smoothSolver:  Solving for Uy, Initial residual = 7.89403e-07, Final residual = 5.81094e-08, No Iterations 3
GAMG:  Solving for p, Initial residual = 2.07516e-06, Final residual = 1.56783e-07, No Iterations 2
time step continuity errors : sum local = 6.42839e-07, global = -4.45992e-08, cumulative = 0.0370627
smoothSolver:  Solving for omega, Initial residual = 9.43647e-08, Final residual = 6.92316e-09, No Iterations 2
smoothSolver:  Solving for k, Initial residual = 1.23652e-06, Final residual = 1.18516e-07, No Iterations 2
ExecutionTime = 7.51 s  ClockTime = 8 s

scalarTransport execute: age
smoothSolver:  Solving for age, Initial residual = 0.000363376, Final residual = 3.50143e-05, No Iterations 14

Time = 671

smoothSolver:  Solving for Ux, Initial residual = 8.66522e-07, Final residual = 6.12553e-08, No Iterations 3
smoothSolver:  Solving for Uy, Initial residual = 7.81244e-07, Final residual = 6.22569e-08, No Iterations 3
GAMG:  Solving for p, Initial residual = 1.94885e-06, Final residual = 1.52528e-07, No Iterations 2
time step continuity errors : sum local = 6.25396e-07, global = -5.01484e-08, cumulative = 0.0370626
smoothSolver:  Solving for omega, Initial residual = 9.12277e-08, Final residual = 6.95021e-09, No Iterations 2
smoothSolver:  Solving for k, Initial residual = 1.16871e-06, Final residual = 1.10087e-07, No Iterations 2
ExecutionTime = 7.52 s  ClockTime = 8 s

scalarTransport execute: age
smoothSolver:  Solving for age, Initial residual = 0.000362741, Final residual = 3.49547e-05, No Iterations 14

Time = 672

smoothSolver:  Solving for Ux, Initial residual = 8.25541e-07, Final residual = 5.91672e-08, No Iterations 3
smoothSolver:  Solving for Uy, Initial residual = 7.64316e-07, Final residual = 6.41229e-08, No Iterations 3
GAMG:  Solving for p, Initial residual = 1.85722e-06, Final residual = 1.48368e-07, No Iterations 2
time step continuity errors : sum local = 6.08336e-07, global = -4.58215e-08, cumulative = 0.0370626
smoothSolver:  Solving for omega, Initial residual = 8.74843e-08, Final residual = 6.66522e-09, No Iterations 2
smoothSolver:  Solving for k, Initial residual = 1.11568e-06, Final residual = 1.07055e-07, No Iterations 2
ExecutionTime = 7.54 s  ClockTime = 8 s

scalarTransport execute: age
smoothSolver:  Solving for age, Initial residual = 0.000362094, Final residual = 3.48993e-05, No Iterations 14

Time = 673

smoothSolver:  Solving for Ux, Initial residual = 7.8265e-07, Final residual = 5.67689e-08, No Iterations 3
smoothSolver:  Solving for Uy, Initial residual = 7.35802e-07, Final residual = 6.25425e-08, No Iterations 3
GAMG:  Solving for p, Initial residual = 1.81133e-06, Final residual = 1.48893e-07, No Iterations 2
time step continuity errors : sum local = 6.10489e-07, global = -3.8672e-08, cumulative = 0.0370626
smoothSolver:  Solving for omega, Initial residual = 8.22779e-08, Final residual = 6.18582e-09, No Iterations 2
smoothSolver:  Solving for k, Initial residual = 1.07723e-06, Final residual = 1.0484e-07, No Iterations 2
ExecutionTime = 7.55 s  ClockTime = 8 s

scalarTransport execute: age
smoothSolver:  Solving for age, Initial residual = 0.000361451, Final residual = 3.48453e-05, No Iterations 14

Time = 674

smoothSolver:  Solving for Ux, Initial residual = 7.37854e-07, Final residual = 5.28581e-08, No Iterations 3
smoothSolver:  Solving for Uy, Initial residual = 6.95359e-07, Final residual = 5.85531e-08, No Iterations 3
GAMG:  Solving for p, Initial residual = 1.77986e-06, Final residual = 1.40185e-07, No Iterations 2
time step continuity errors : sum local = 5.74786e-07, global = -2.58987e-08, cumulative = 0.0370625
smoothSolver:  Solving for omega, Initial residual = 7.61415e-08, Final residual = 5.59909e-09, No Iterations 2
smoothSolver:  Solving for k, Initial residual = 1.0396e-06, Final residual = 1.02002e-07, No Iterations 2
ExecutionTime = 7.56 s  ClockTime = 8 s

scalarTransport execute: age
smoothSolver:  Solving for age, Initial residual = 0.000360809, Final residual = 3.479e-05, No Iterations 14

Time = 675

smoothSolver:  Solving for Ux, Initial residual = 6.9264e-07, Final residual = 4.90472e-08, No Iterations 3
smoothSolver:  Solving for Uy, Initial residual = 6.55087e-07, Final residual = 5.50872e-08, No Iterations 3
GAMG:  Solving for p, Initial residual = 1.70634e-06, Final residual = 1.30746e-07, No Iterations 2
time step continuity errors : sum local = 5.36085e-07, global = -1.00583e-08, cumulative = 0.0370625
smoothSolver:  Solving for omega, Initial residual = 7.06502e-08, Final residual = 5.18844e-09, No Iterations 2
smoothSolver:  Solving for k, Initial residual = 9.95716e-07, Final residual = 9.786e-08, No Iterations 2
ExecutionTime = 7.57 s  ClockTime = 8 s

scalarTransport execute: age
smoothSolver:  Solving for age, Initial residual = 0.000360173, Final residual = 3.47313e-05, No Iterations 14

Time = 676

smoothSolver:  Solving for Ux, Initial residual = 6.55842e-07, Final residual = 4.62907e-08, No Iterations 3
smoothSolver:  Solving for Uy, Initial residual = 6.16889e-07, Final residual = 5.27592e-08, No Iterations 3
GAMG:  Solving for p, Initial residual = 1.6151e-06, Final residual = 1.26447e-07, No Iterations 2
time step continuity errors : sum local = 5.18458e-07, global = 5.70022e-09, cumulative = 0.0370625
smoothSolver:  Solving for omega, Initial residual = 6.83846e-08, Final residual = 5.37991e-09, No Iterations 2
smoothSolver:  Solving for k, Initial residual = 9.49609e-07, Final residual = 9.35195e-08, No Iterations 2
ExecutionTime = 7.58 s  ClockTime = 8 s

scalarTransport execute: age
smoothSolver:  Solving for age, Initial residual = 0.000359537, Final residual = 3.46682e-05, No Iterations 14

Time = 677

smoothSolver:  Solving for Ux, Initial residual = 6.32266e-07, Final residual = 4.62751e-08, No Iterations 3
smoothSolver:  Solving for Uy, Initial residual = 5.903e-07, Final residual = 5.06852e-08, No Iterations 3
GAMG:  Solving for p, Initial residual = 1.52324e-06, Final residual = 1.22535e-07, No Iterations 2
time step continuity errors : sum local = 5.02419e-07, global = 1.9624e-08, cumulative = 0.0370625
smoothSolver:  Solving for omega, Initial residual = 6.72717e-08, Final residual = 5.61669e-09, No Iterations 2
smoothSolver:  Solving for k, Initial residual = 9.1066e-07, Final residual = 9.07895e-08, No Iterations 2
ExecutionTime = 7.59 s  ClockTime = 8 s

scalarTransport execute: age
smoothSolver:  Solving for age, Initial residual = 0.000358899, Final residual = 3.46014e-05, No Iterations 14

Time = 678

smoothSolver:  Solving for Ux, Initial residual = 6.10125e-07, Final residual = 4.70669e-08, No Iterations 3
smoothSolver:  Solving for Uy, Initial residual = 5.70892e-07, Final residual = 4.8011e-08, No Iterations 3
GAMG:  Solving for p, Initial residual = 1.4301e-06, Final residual = 1.17575e-07, No Iterations 2
time step continuity errors : sum local = 4.8208e-07, global = 2.78553e-08, cumulative = 0.0370626
smoothSolver:  Solving for omega, Initial residual = 6.62321e-08, Final residual = 5.58006e-09, No Iterations 2
smoothSolver:  Solving for k, Initial residual = 8.82658e-07, Final residual = 3.67894e-08, No Iterations 3
ExecutionTime = 7.6 s  ClockTime = 8 s

scalarTransport execute: age
smoothSolver:  Solving for age, Initial residual = 0.000358262, Final residual = 3.45334e-05, No Iterations 14

Time = 679

smoothSolver:  Solving for Ux, Initial residual = 5.89531e-07, Final residual = 4.62918e-08, No Iterations 3
smoothSolver:  Solving for Uy, Initial residual = 5.40744e-07, Final residual = 4.45192e-08, No Iterations 3
GAMG:  Solving for p, Initial residual = 1.37157e-06, Final residual = 1.06319e-07, No Iterations 2
time step continuity errors : sum local = 4.3593e-07, global = 2.80893e-08, cumulative = 0.0370626
smoothSolver:  Solving for omega, Initial residual = 6.42297e-08, Final residual = 5.33747e-09, No Iterations 2
smoothSolver:  Solving for k, Initial residual = 8.34017e-07, Final residual = 3.41295e-08, No Iterations 3
ExecutionTime = 7.61 s  ClockTime = 8 s

scalarTransport execute: age
smoothSolver:  Solving for age, Initial residual = 0.000357634, Final residual = 3.44663e-05, No Iterations 14

Time = 680

smoothSolver:  Solving for Ux, Initial residual = 5.56287e-07, Final residual = 4.24689e-08, No Iterations 3
smoothSolver:  Solving for Uy, Initial residual = 5.03703e-07, Final residual = 4.12391e-08, No Iterations 3
GAMG:  Solving for p, Initial residual = 1.31399e-06, Final residual = 1.04361e-07, No Iterations 2
time step continuity errors : sum local = 4.279e-07, global = 2.41627e-08, cumulative = 0.0370626
smoothSolver:  Solving for omega, Initial residual = 6.14883e-08, Final residual = 4.94724e-09, No Iterations 2
smoothSolver:  Solving for k, Initial residual = 7.81223e-07, Final residual = 3.07874e-08, No Iterations 3
ExecutionTime = 7.62 s  ClockTime = 8 s

scalarTransport execute: age
smoothSolver:  Solving for age, Initial residual = 0.000357016, Final residual = 3.44028e-05, No Iterations 14

Time = 681

smoothSolver:  Solving for Ux, Initial residual = 5.16119e-07, Final residual = 3.67071e-08, No Iterations 3
smoothSolver:  Solving for Uy, Initial residual = 4.62934e-07, Final residual = 3.95159e-08, No Iterations 3
GAMG:  Solving for p, Initial residual = 1.23109e-06, Final residual = 1.02346e-07, No Iterations 2
time step continuity errors : sum local = 4.1964e-07, global = 1.77113e-08, cumulative = 0.0370626
smoothSolver:  Solving for omega, Initial residual = 5.81534e-08, Final residual = 4.54214e-09, No Iterations 2
smoothSolver:  Solving for k, Initial residual = 7.18212e-07, Final residual = 6.88015e-08, No Iterations 2
ExecutionTime = 7.64 s  ClockTime = 8 s

scalarTransport execute: age
smoothSolver:  Solving for age, Initial residual = 0.000356405, Final residual = 3.43432e-05, No Iterations 14

Time = 682

smoothSolver:  Solving for Ux, Initial residual = 4.75142e-07, Final residual = 3.18436e-08, No Iterations 3
smoothSolver:  Solving for Uy, Initial residual = 4.30752e-07, Final residual = 3.91346e-08, No Iterations 3
GAMG:  Solving for p, Initial residual = 1.13435e-06, Final residual = 9.59209e-08, No Iterations 2
time step continuity errors : sum local = 3.93295e-07, global = 1.18498e-08, cumulative = 0.0370626
smoothSolver:  Solving for omega, Initial residual = 5.42581e-08, Final residual = 4.28574e-09, No Iterations 2
smoothSolver:  Solving for k, Initial residual = 6.64673e-07, Final residual = 6.06963e-08, No Iterations 2
ExecutionTime = 7.65 s  ClockTime = 8 s

scalarTransport execute: age
smoothSolver:  Solving for age, Initial residual = 0.000355791, Final residual = 3.42874e-05, No Iterations 14

Time = 683

smoothSolver:  Solving for Ux, Initial residual = 4.49187e-07, Final residual = 3.04086e-08, No Iterations 3
smoothSolver:  Solving for Uy, Initial residual = 4.1379e-07, Final residual = 3.9189e-08, No Iterations 3
GAMG:  Solving for p, Initial residual = 1.04713e-06, Final residual = 8.32843e-08, No Iterations 2
time step continuity errors : sum local = 3.41482e-07, global = 6.54108e-09, cumulative = 0.0370627
smoothSolver:  Solving for omega, Initial residual = 5.2338e-08, Final residual = 4.2214e-09, No Iterations 2
smoothSolver:  Solving for k, Initial residual = 6.26216e-07, Final residual = 5.80183e-08, No Iterations 2
ExecutionTime = 7.66 s  ClockTime = 8 s

scalarTransport execute: age
smoothSolver:  Solving for age, Initial residual = 0.000355171, Final residual = 3.42341e-05, No Iterations 14

Time = 684

smoothSolver:  Solving for Ux, Initial residual = 4.33286e-07, Final residual = 3.19217e-08, No Iterations 3
smoothSolver:  Solving for Uy, Initial residual = 4.04072e-07, Final residual = 3.83231e-08, No Iterations 3
GAMG:  Solving for p, Initial residual = 9.91525e-07, Final residual = 7.65858e-08, No Iterations 2
time step continuity errors : sum local = 3.14017e-07, global = 2.7105e-09, cumulative = 0.0370627
smoothSolver:  Solving for omega, Initial residual = 5.01646e-08, Final residual = 4.08397e-09, No Iterations 2
smoothSolver:  Solving for k, Initial residual = 6.05653e-07, Final residual = 5.90661e-08, No Iterations 2
ExecutionTime = 7.67 s  ClockTime = 8 s


SIMPLE solution converged in 684 iterations

scalarTransport execute: age
smoothSolver:  Solving for age, Initial residual = 0.000354546, Final residual = 3.41813e-05, No Iterations 14

End

