/*---------------------------------------------------------------------------*\
| =========                 |                                                 |
| \\      /  F ield         | OpenFOAM: The Open Source CFD Toolbox           |
|  \\    /   O peration     | Version:  v2012                                 |
|   \\  /    A nd           | Website:  www.openfoam.com                      |
|    \\/     M anipulation  |                                                 |
\*---------------------------------------------------------------------------*/
Build  : _7bdb509494-20201222 OPENFOAM=2012
Arch   : "LSB;label=32;scalar=64"
Exec   : simpleFoam
Date   : Feb 22 2023
Time   : 17:13:40
Host   : johnsDesktop
PID    : 5294
I/O    : uncollated
Case   : /home/john/of_runs/cases/0_1_4-00600_9
nProcs : 1
trapFpe: Floating point exception trapping enabled (FOAM_SIGFPE).
fileModificationChecking : Monitoring run-time modified files using timeStampMaster (fileModificationSkew 5, maxFileModificationPolls 20)
allowSystemOperations : Allowing user-supplied system call operations

// * * * * * * * * * * * * * * * * * * * * * * * * * * * * * * * * * * * * * //
Create time

Create mesh for time = 0


SIMPLE: convergence criteria
    field p	 tolerance 1e-06
    field U	 tolerance 1e-06
    field "(k|epsilon|omega|f|v2|age)"	 tolerance 1e-05

Reading field p

Reading field U

Reading/calculating face flux field phi

Selecting incompressible transport model Newtonian
Selecting turbulence model type RAS
Selecting RAS turbulence model kOmegaSST
Selecting patchDistMethod meshWave
RAS
{
    RASModel        kOmegaSST;
    turbulence      on;
    printCoeffs     on;
    alphaK1         0.85;
    alphaK2         1;
    alphaOmega1     0.5;
    alphaOmega2     0.856;
    gamma1          0.555556;
    gamma2          0.44;
    beta1           0.075;
    beta2           0.0828;
    betaStar        0.09;
    a1              0.31;
    b1              1;
    c1              10;
    F3              false;
    decayControl    false;
    kInf            0;
    omegaInf        0;
}

No MRF models present

No finite volume options present

Starting time loop

Selecting finite volume options type scalarSemiImplicitSource
    Source: unitySource
    - selecting all cells
    - selected 6108 cell(s) with volume 0.03195
Time = 1

smoothSolver:  Solving for Ux, Initial residual = 0, Final residual = 0, No Iterations 0
smoothSolver:  Solving for Uy, Initial residual = 1, Final residual = 0.0864804, No Iterations 2
GAMG:  Solving for p, Initial residual = 1, Final residual = 0.0639558, No Iterations 11
time step continuity errors : sum local = 0.00400349, global = -0.000468145, cumulative = -0.000468145
smoothSolver:  Solving for omega, Initial residual = 0.294764, Final residual = 0.0125608, No Iterations 3
smoothSolver:  Solving for k, Initial residual = 1, Final residual = 0.0816786, No Iterations 3
ExecutionTime = 0.06 s  ClockTime = 0 s

scalarTransport execute: age
smoothSolver:  Solving for age, Initial residual = 1, Final residual = 0.0998402, No Iterations 3

Time = 2

smoothSolver:  Solving for Ux, Initial residual = 0.575888, Final residual = 0.049824, No Iterations 6
smoothSolver:  Solving for Uy, Initial residual = 0.277689, Final residual = 0.0201033, No Iterations 6
GAMG:  Solving for p, Initial residual = 0.044721, Final residual = 0.00397782, No Iterations 4
time step continuity errors : sum local = 0.0436036, global = 0.00550786, cumulative = 0.00503972
smoothSolver:  Solving for omega, Initial residual = 0.262776, Final residual = 0.0138137, No Iterations 4
smoothSolver:  Solving for k, Initial residual = 0.61262, Final residual = 0.0590692, No Iterations 4
ExecutionTime = 0.07 s  ClockTime = 0 s

scalarTransport execute: age
smoothSolver:  Solving for age, Initial residual = 0.57882, Final residual = 0.0499598, No Iterations 19

Time = 3

smoothSolver:  Solving for Ux, Initial residual = 0.242999, Final residual = 0.018468, No Iterations 6
smoothSolver:  Solving for Uy, Initial residual = 0.0980262, Final residual = 0.00911654, No Iterations 5
GAMG:  Solving for p, Initial residual = 0.0546964, Final residual = 0.00342039, No Iterations 5
time step continuity errors : sum local = 0.0166448, global = 0.00202298, cumulative = 0.00706269
smoothSolver:  Solving for omega, Initial residual = 0.239599, Final residual = 0.0138674, No Iterations 5
smoothSolver:  Solving for k, Initial residual = 0.516701, Final residual = 0.0404526, No Iterations 5
ExecutionTime = 0.09 s  ClockTime = 0 s

scalarTransport execute: age
smoothSolver:  Solving for age, Initial residual = 0.195756, Final residual = 0.018878, No Iterations 14

Time = 4

smoothSolver:  Solving for Ux, Initial residual = 0.119067, Final residual = 0.0105263, No Iterations 3
smoothSolver:  Solving for Uy, Initial residual = 0.0509795, Final residual = 0.00368537, No Iterations 5
GAMG:  Solving for p, Initial residual = 0.0859268, Final residual = 0.00646783, No Iterations 3
time step continuity errors : sum local = 0.0154341, global = 0.00102835, cumulative = 0.00809104
smoothSolver:  Solving for omega, Initial residual = 0.135688, Final residual = 0.00976883, No Iterations 5
smoothSolver:  Solving for k, Initial residual = 0.447152, Final residual = 0.039122, No Iterations 5
ExecutionTime = 0.1 s  ClockTime = 0 s

scalarTransport execute: age
smoothSolver:  Solving for age, Initial residual = 0.167063, Final residual = 0.0146703, No Iterations 8

Time = 5

smoothSolver:  Solving for Ux, Initial residual = 0.0954271, Final residual = 0.00886696, No Iterations 5
smoothSolver:  Solving for Uy, Initial residual = 0.0336499, Final residual = 0.00262193, No Iterations 5
GAMG:  Solving for p, Initial residual = 0.0824658, Final residual = 0.00346935, No Iterations 2
time step continuity errors : sum local = 0.00694598, global = 0.000927784, cumulative = 0.00901882
smoothSolver:  Solving for omega, Initial residual = 0.0948549, Final residual = 0.00747596, No Iterations 5
smoothSolver:  Solving for k, Initial residual = 0.35964, Final residual = 0.0336771, No Iterations 5
ExecutionTime = 0.11 s  ClockTime = 0 s

scalarTransport execute: age
smoothSolver:  Solving for age, Initial residual = 0.153434, Final residual = 0.0146745, No Iterations 4

Time = 6

smoothSolver:  Solving for Ux, Initial residual = 0.078225, Final residual = 0.00611682, No Iterations 6
smoothSolver:  Solving for Uy, Initial residual = 0.0270149, Final residual = 0.00224786, No Iterations 5
GAMG:  Solving for p, Initial residual = 0.0646708, Final residual = 0.00431256, No Iterations 2
time step continuity errors : sum local = 0.0088475, global = 0.000247346, cumulative = 0.00926617
smoothSolver:  Solving for omega, Initial residual = 0.0770589, Final residual = 0.00641368, No Iterations 5
smoothSolver:  Solving for k, Initial residual = 0.287323, Final residual = 0.028469, No Iterations 5
ExecutionTime = 0.12 s  ClockTime = 0 s

scalarTransport execute: age
smoothSolver:  Solving for age, Initial residual = 0.134482, Final residual = 0.0104834, No Iterations 5

Time = 7

smoothSolver:  Solving for Ux, Initial residual = 0.068843, Final residual = 0.00547155, No Iterations 6
smoothSolver:  Solving for Uy, Initial residual = 0.0228767, Final residual = 0.00205023, No Iterations 5
GAMG:  Solving for p, Initial residual = 0.0525894, Final residual = 0.00418828, No Iterations 3
time step continuity errors : sum local = 0.00875137, global = -0.000658231, cumulative = 0.00860794
smoothSolver:  Solving for omega, Initial residual = 0.0587731, Final residual = 0.00523537, No Iterations 5
smoothSolver:  Solving for k, Initial residual = 0.238013, Final residual = 0.0155766, No Iterations 6
ExecutionTime = 0.13 s  ClockTime = 0 s

scalarTransport execute: age
smoothSolver:  Solving for age, Initial residual = 0.123719, Final residual = 0.00817327, No Iterations 4

Time = 8

smoothSolver:  Solving for Ux, Initial residual = 0.0447738, Final residual = 0.00405198, No Iterations 5
smoothSolver:  Solving for Uy, Initial residual = 0.021031, Final residual = 0.00196344, No Iterations 5
GAMG:  Solving for p, Initial residual = 0.041857, Final residual = 0.00201819, No Iterations 3
time step continuity errors : sum local = 0.00474916, global = -0.00046105, cumulative = 0.00814689
smoothSolver:  Solving for omega, Initial residual = 0.0478476, Final residual = 0.00439888, No Iterations 5
smoothSolver:  Solving for k, Initial residual = 0.202798, Final residual = 0.013715, No Iterations 6
ExecutionTime = 0.14 s  ClockTime = 0 s

scalarTransport execute: age
smoothSolver:  Solving for age, Initial residual = 0.111616, Final residual = 0.00913308, No Iterations 3

Time = 9

smoothSolver:  Solving for Ux, Initial residual = 0.0359454, Final residual = 0.00337625, No Iterations 5
smoothSolver:  Solving for Uy, Initial residual = 0.018261, Final residual = 0.0016625, No Iterations 5
GAMG:  Solving for p, Initial residual = 0.0336434, Final residual = 0.0021198, No Iterations 2
time step continuity errors : sum local = 0.0054054, global = -0.000566864, cumulative = 0.00758002
smoothSolver:  Solving for omega, Initial residual = 0.0402232, Final residual = 0.0037869, No Iterations 5
smoothSolver:  Solving for k, Initial residual = 0.175713, Final residual = 0.0122261, No Iterations 6
ExecutionTime = 0.16 s  ClockTime = 0 s

scalarTransport execute: age
smoothSolver:  Solving for age, Initial residual = 0.100823, Final residual = 0.00779731, No Iterations 3

Time = 10

smoothSolver:  Solving for Ux, Initial residual = 0.0337901, Final residual = 0.00226471, No Iterations 6
smoothSolver:  Solving for Uy, Initial residual = 0.0186649, Final residual = 0.00169837, No Iterations 5
GAMG:  Solving for p, Initial residual = 0.0290224, Final residual = 0.00111155, No Iterations 2
time step continuity errors : sum local = 0.00294083, global = -0.000504993, cumulative = 0.00707503
smoothSolver:  Solving for omega, Initial residual = 0.0335209, Final residual = 0.00325047, No Iterations 5
smoothSolver:  Solving for k, Initial residual = 0.154838, Final residual = 0.0110133, No Iterations 6
ExecutionTime = 0.17 s  ClockTime = 0 s

scalarTransport execute: age
smoothSolver:  Solving for age, Initial residual = 0.0953609, Final residual = 0.00583961, No Iterations 3

Time = 11

smoothSolver:  Solving for Ux, Initial residual = 0.0314029, Final residual = 0.00216826, No Iterations 6
smoothSolver:  Solving for Uy, Initial residual = 0.0168353, Final residual = 0.00157189, No Iterations 5
GAMG:  Solving for p, Initial residual = 0.024674, Final residual = 0.000917943, No Iterations 2
time step continuity errors : sum local = 0.00246218, global = -0.000396632, cumulative = 0.0066784
smoothSolver:  Solving for omega, Initial residual = 0.0285499, Final residual = 0.00281806, No Iterations 5
smoothSolver:  Solving for k, Initial residual = 0.138083, Final residual = 0.0100037, No Iterations 6
ExecutionTime = 0.18 s  ClockTime = 0 s

scalarTransport execute: age
smoothSolver:  Solving for age, Initial residual = 0.0861989, Final residual = 0.00442588, No Iterations 3

Time = 12

smoothSolver:  Solving for Ux, Initial residual = 0.0301275, Final residual = 0.00210859, No Iterations 6
smoothSolver:  Solving for Uy, Initial residual = 0.0162524, Final residual = 0.0015714, No Iterations 5
GAMG:  Solving for p, Initial residual = 0.02163, Final residual = 0.000931176, No Iterations 2
time step continuity errors : sum local = 0.00252431, global = -0.000286114, cumulative = 0.00639229
smoothSolver:  Solving for omega, Initial residual = 0.0245065, Final residual = 0.00156888, No Iterations 6
smoothSolver:  Solving for k, Initial residual = 0.124055, Final residual = 0.0091324, No Iterations 6
ExecutionTime = 0.19 s  ClockTime = 0 s

scalarTransport execute: age
smoothSolver:  Solving for age, Initial residual = 0.0773655, Final residual = 0.00764511, No Iterations 2

Time = 13

smoothSolver:  Solving for Ux, Initial residual = 0.0289524, Final residual = 0.00204455, No Iterations 6
smoothSolver:  Solving for Uy, Initial residual = 0.016005, Final residual = 0.00105605, No Iterations 6
GAMG:  Solving for p, Initial residual = 0.020129, Final residual = 0.000960573, No Iterations 2
time step continuity errors : sum local = 0.00262014, global = -0.000187291, cumulative = 0.006205
smoothSolver:  Solving for omega, Initial residual = 0.021038, Final residual = 0.00137041, No Iterations 6
smoothSolver:  Solving for k, Initial residual = 0.112242, Final residual = 0.00837955, No Iterations 6
ExecutionTime = 0.2 s  ClockTime = 0 s

scalarTransport execute: age
smoothSolver:  Solving for age, Initial residual = 0.0692927, Final residual = 0.0038324, No Iterations 3

Time = 14

smoothSolver:  Solving for Ux, Initial residual = 0.0280265, Final residual = 0.00199596, No Iterations 6
smoothSolver:  Solving for Uy, Initial residual = 0.0156518, Final residual = 0.00105683, No Iterations 6
GAMG:  Solving for p, Initial residual = 0.0189498, Final residual = 0.000942351, No Iterations 2
time step continuity errors : sum local = 0.00257967, global = -8.18973e-05, cumulative = 0.0061231
smoothSolver:  Solving for omega, Initial residual = 0.0182495, Final residual = 0.00120592, No Iterations 6
smoothSolver:  Solving for k, Initial residual = 0.102361, Final residual = 0.00773211, No Iterations 6
ExecutionTime = 0.21 s  ClockTime = 0 s

scalarTransport execute: age
smoothSolver:  Solving for age, Initial residual = 0.0616185, Final residual = 0.00331808, No Iterations 3

Time = 15

smoothSolver:  Solving for Ux, Initial residual = 0.02725, Final residual = 0.00195084, No Iterations 6
smoothSolver:  Solving for Uy, Initial residual = 0.0154263, Final residual = 0.00105675, No Iterations 6
GAMG:  Solving for p, Initial residual = 0.0180102, Final residual = 0.000879887, No Iterations 2
time step continuity errors : sum local = 0.00241415, global = 1.59903e-05, cumulative = 0.00613909
smoothSolver:  Solving for omega, Initial residual = 0.0159912, Final residual = 0.00106886, No Iterations 6
smoothSolver:  Solving for k, Initial residual = 0.0939469, Final residual = 0.00716752, No Iterations 6
ExecutionTime = 0.22 s  ClockTime = 0 s

scalarTransport execute: age
smoothSolver:  Solving for age, Initial residual = 0.0542753, Final residual = 0.00292546, No Iterations 3

Time = 16

smoothSolver:  Solving for Ux, Initial residual = 0.0264877, Final residual = 0.00190292, No Iterations 6
smoothSolver:  Solving for Uy, Initial residual = 0.0151965, Final residual = 0.00105044, No Iterations 6
GAMG:  Solving for p, Initial residual = 0.0172255, Final residual = 0.000824913, No Iterations 2
time step continuity errors : sum local = 0.00226389, global = 0.000107007, cumulative = 0.00624609
smoothSolver:  Solving for omega, Initial residual = 0.0141269, Final residual = 0.000953262, No Iterations 6
smoothSolver:  Solving for k, Initial residual = 0.0867041, Final residual = 0.00667164, No Iterations 6
ExecutionTime = 0.23 s  ClockTime = 0 s

scalarTransport execute: age
smoothSolver:  Solving for age, Initial residual = 0.0477922, Final residual = 0.00275046, No Iterations 3

Time = 17

smoothSolver:  Solving for Ux, Initial residual = 0.0257251, Final residual = 0.00185613, No Iterations 6
smoothSolver:  Solving for Uy, Initial residual = 0.0149974, Final residual = 0.00104059, No Iterations 6
GAMG:  Solving for p, Initial residual = 0.0164903, Final residual = 0.000783749, No Iterations 2
time step continuity errors : sum local = 0.00214871, global = 0.00017281, cumulative = 0.0064189
smoothSolver:  Solving for omega, Initial residual = 0.0125862, Final residual = 0.000855211, No Iterations 6
smoothSolver:  Solving for k, Initial residual = 0.0804179, Final residual = 0.00623306, No Iterations 6
ExecutionTime = 0.25 s  ClockTime = 0 s

scalarTransport execute: age
smoothSolver:  Solving for age, Initial residual = 0.0421346, Final residual = 0.00268182, No Iterations 3

Time = 18

smoothSolver:  Solving for Ux, Initial residual = 0.0250334, Final residual = 0.00181526, No Iterations 6
smoothSolver:  Solving for Uy, Initial residual = 0.014789, Final residual = 0.00102776, No Iterations 6
GAMG:  Solving for p, Initial residual = 0.0158977, Final residual = 0.000752344, No Iterations 2
time step continuity errors : sum local = 0.00205708, global = 0.00021918, cumulative = 0.00663808
smoothSolver:  Solving for omega, Initial residual = 0.0112904, Final residual = 0.000771437, No Iterations 6
smoothSolver:  Solving for k, Initial residual = 0.0749155, Final residual = 0.00584334, No Iterations 6
ExecutionTime = 0.26 s  ClockTime = 0 s

scalarTransport execute: age
smoothSolver:  Solving for age, Initial residual = 0.0374246, Final residual = 0.00255111, No Iterations 3

Time = 19

smoothSolver:  Solving for Ux, Initial residual = 0.0243841, Final residual = 0.00177892, No Iterations 6
smoothSolver:  Solving for Uy, Initial residual = 0.0145799, Final residual = 0.00101446, No Iterations 6
GAMG:  Solving for p, Initial residual = 0.0154026, Final residual = 0.000740277, No Iterations 2
time step continuity errors : sum local = 0.00201395, global = 0.00024656, cumulative = 0.00688464
smoothSolver:  Solving for omega, Initial residual = 0.0101906, Final residual = 0.000699239, No Iterations 6
smoothSolver:  Solving for k, Initial residual = 0.0700632, Final residual = 0.00549483, No Iterations 6
ExecutionTime = 0.27 s  ClockTime = 0 s

scalarTransport execute: age
smoothSolver:  Solving for age, Initial residual = 0.0336578, Final residual = 0.00247973, No Iterations 3

Time = 20

smoothSolver:  Solving for Ux, Initial residual = 0.023845, Final residual = 0.00174695, No Iterations 6
smoothSolver:  Solving for Uy, Initial residual = 0.0143494, Final residual = 0.00100136, No Iterations 6
GAMG:  Solving for p, Initial residual = 0.0149567, Final residual = 0.00074226, No Iterations 2
time step continuity errors : sum local = 0.0020029, global = 0.000258096, cumulative = 0.00714274
smoothSolver:  Solving for omega, Initial residual = 0.00924917, Final residual = 0.000636592, No Iterations 6
smoothSolver:  Solving for k, Initial residual = 0.0657664, Final residual = 0.00518236, No Iterations 6
ExecutionTime = 0.28 s  ClockTime = 0 s

scalarTransport execute: age
smoothSolver:  Solving for age, Initial residual = 0.0303998, Final residual = 0.0024133, No Iterations 3

Time = 21

smoothSolver:  Solving for Ux, Initial residual = 0.0233681, Final residual = 0.001719, No Iterations 6
smoothSolver:  Solving for Uy, Initial residual = 0.0141093, Final residual = 0.000989082, No Iterations 6
GAMG:  Solving for p, Initial residual = 0.0145294, Final residual = 0.000752168, No Iterations 2
time step continuity errors : sum local = 0.00201098, global = 0.000256898, cumulative = 0.00739964
smoothSolver:  Solving for omega, Initial residual = 0.00843081, Final residual = 0.000581864, No Iterations 6
smoothSolver:  Solving for k, Initial residual = 0.0619333, Final residual = 0.00490043, No Iterations 6
ExecutionTime = 0.29 s  ClockTime = 0 s

scalarTransport execute: age
smoothSolver:  Solving for age, Initial residual = 0.0276286, Final residual = 0.00241024, No Iterations 3

Time = 22

smoothSolver:  Solving for Ux, Initial residual = 0.022947, Final residual = 0.00169431, No Iterations 6
smoothSolver:  Solving for Uy, Initial residual = 0.0138474, Final residual = 0.000975672, No Iterations 6
GAMG:  Solving for p, Initial residual = 0.0140417, Final residual = 0.000764509, No Iterations 2
time step continuity errors : sum local = 0.00202778, global = 0.000248348, cumulative = 0.00764799
smoothSolver:  Solving for omega, Initial residual = 0.00771729, Final residual = 0.000533842, No Iterations 6
smoothSolver:  Solving for k, Initial residual = 0.0584951, Final residual = 0.00464515, No Iterations 6
ExecutionTime = 0.3 s  ClockTime = 0 s

scalarTransport execute: age
smoothSolver:  Solving for age, Initial residual = 0.0253344, Final residual = 0.00241545, No Iterations 3

Time = 23

smoothSolver:  Solving for Ux, Initial residual = 0.0225611, Final residual = 0.00167181, No Iterations 6
smoothSolver:  Solving for Uy, Initial residual = 0.0136014, Final residual = 0.000961768, No Iterations 6
GAMG:  Solving for p, Initial residual = 0.0134621, Final residual = 0.000781412, No Iterations 2
time step continuity errors : sum local = 0.00205999, global = 0.0002378, cumulative = 0.00788579
smoothSolver:  Solving for omega, Initial residual = 0.00709349, Final residual = 0.000491516, No Iterations 6
smoothSolver:  Solving for k, Initial residual = 0.0553961, Final residual = 0.00441307, No Iterations 6
ExecutionTime = 0.31 s  ClockTime = 0 s

scalarTransport execute: age
smoothSolver:  Solving for age, Initial residual = 0.0235782, Final residual = 0.00188356, No Iterations 4

Time = 24

smoothSolver:  Solving for Ux, Initial residual = 0.022215, Final residual = 0.00165195, No Iterations 6
smoothSolver:  Solving for Uy, Initial residual = 0.0133352, Final residual = 0.000947304, No Iterations 6
GAMG:  Solving for p, Initial residual = 0.012902, Final residual = 0.000792237, No Iterations 2
time step continuity errors : sum local = 0.00207799, global = 0.000223292, cumulative = 0.00810908
smoothSolver:  Solving for omega, Initial residual = 0.00654142, Final residual = 0.000453933, No Iterations 6
smoothSolver:  Solving for k, Initial residual = 0.0525861, Final residual = 0.0042009, No Iterations 6
ExecutionTime = 0.32 s  ClockTime = 0 s

scalarTransport execute: age
smoothSolver:  Solving for age, Initial residual = 0.021931, Final residual = 0.00181807, No Iterations 4

Time = 25

smoothSolver:  Solving for Ux, Initial residual = 0.0218684, Final residual = 0.00163393, No Iterations 6
smoothSolver:  Solving for Uy, Initial residual = 0.0130809, Final residual = 0.00093187, No Iterations 6
GAMG:  Solving for p, Initial residual = 0.012342, Final residual = 0.000797953, No Iterations 2
time step continuity errors : sum local = 0.00208344, global = 0.000207197, cumulative = 0.00831628
smoothSolver:  Solving for omega, Initial residual = 0.00605404, Final residual = 0.000420467, No Iterations 6
smoothSolver:  Solving for k, Initial residual = 0.0500258, Final residual = 0.004006, No Iterations 6
ExecutionTime = 0.34 s  ClockTime = 0 s

scalarTransport execute: age
smoothSolver:  Solving for age, Initial residual = 0.0204973, Final residual = 0.00180695, No Iterations 4

Time = 26

smoothSolver:  Solving for Ux, Initial residual = 0.0215668, Final residual = 0.00161817, No Iterations 6
smoothSolver:  Solving for Uy, Initial residual = 0.0128289, Final residual = 0.000915744, No Iterations 6
GAMG:  Solving for p, Initial residual = 0.0118668, Final residual = 0.000794137, No Iterations 2
time step continuity errors : sum local = 0.00206497, global = 0.00019146, cumulative = 0.00850774
smoothSolver:  Solving for omega, Initial residual = 0.005617, Final residual = 0.000390631, No Iterations 6
smoothSolver:  Solving for k, Initial residual = 0.0476836, Final residual = 0.00382636, No Iterations 6
ExecutionTime = 0.35 s  ClockTime = 0 s

scalarTransport execute: age
smoothSolver:  Solving for age, Initial residual = 0.0195036, Final residual = 0.00186749, No Iterations 4

Time = 27

smoothSolver:  Solving for Ux, Initial residual = 0.0212861, Final residual = 0.00160417, No Iterations 6
smoothSolver:  Solving for Uy, Initial residual = 0.0126087, Final residual = 0.000899434, No Iterations 6
GAMG:  Solving for p, Initial residual = 0.0117258, Final residual = 0.000780988, No Iterations 2
time step continuity errors : sum local = 0.00202287, global = 0.000173018, cumulative = 0.00868075
smoothSolver:  Solving for omega, Initial residual = 0.00523126, Final residual = 0.000364085, No Iterations 6
smoothSolver:  Solving for k, Initial residual = 0.0455293, Final residual = 0.00366013, No Iterations 6
ExecutionTime = 0.36 s  ClockTime = 0 s

scalarTransport execute: age
smoothSolver:  Solving for age, Initial residual = 0.018933, Final residual = 0.00152273, No Iterations 5

Time = 28

smoothSolver:  Solving for Ux, Initial residual = 0.0210411, Final residual = 0.00159224, No Iterations 6
smoothSolver:  Solving for Uy, Initial residual = 0.0124105, Final residual = 0.000883039, No Iterations 6
GAMG:  Solving for p, Initial residual = 0.0119429, Final residual = 0.000763591, No Iterations 2
time step continuity errors : sum local = 0.00197041, global = 0.000158354, cumulative = 0.00883911
smoothSolver:  Solving for omega, Initial residual = 0.00488957, Final residual = 0.000340292, No Iterations 6
smoothSolver:  Solving for k, Initial residual = 0.043544, Final residual = 0.00350598, No Iterations 6
ExecutionTime = 0.37 s  ClockTime = 0 s

scalarTransport execute: age
smoothSolver:  Solving for age, Initial residual = 0.0185726, Final residual = 0.00154097, No Iterations 5

Time = 29

smoothSolver:  Solving for Ux, Initial residual = 0.0208694, Final residual = 0.00158373, No Iterations 6
smoothSolver:  Solving for Uy, Initial residual = 0.0122162, Final residual = 0.000866675, No Iterations 6
GAMG:  Solving for p, Initial residual = 0.0122518, Final residual = 0.000749513, No Iterations 2
time step continuity errors : sum local = 0.00192752, global = 0.000149521, cumulative = 0.00898863
smoothSolver:  Solving for omega, Initial residual = 0.00458332, Final residual = 0.000318673, No Iterations 6
smoothSolver:  Solving for k, Initial residual = 0.0416967, Final residual = 0.00336196, No Iterations 6
ExecutionTime = 0.38 s  ClockTime = 0 s

scalarTransport execute: age
smoothSolver:  Solving for age, Initial residual = 0.0184974, Final residual = 0.00157414, No Iterations 5

Time = 30

smoothSolver:  Solving for Ux, Initial residual = 0.020767, Final residual = 0.00157766, No Iterations 6
smoothSolver:  Solving for Uy, Initial residual = 0.0120047, Final residual = 0.00084989, No Iterations 6
GAMG:  Solving for p, Initial residual = 0.0124932, Final residual = 0.000757801, No Iterations 2
time step continuity errors : sum local = 0.00193786, global = 0.000143863, cumulative = 0.00913249
smoothSolver:  Solving for omega, Initial residual = 0.00430616, Final residual = 0.000298917, No Iterations 6
smoothSolver:  Solving for k, Initial residual = 0.0399765, Final residual = 0.00322695, No Iterations 6
ExecutionTime = 0.39 s  ClockTime = 0 s

scalarTransport execute: age
smoothSolver:  Solving for age, Initial residual = 0.0184208, Final residual = 0.00165364, No Iterations 5

Time = 31

smoothSolver:  Solving for Ux, Initial residual = 0.0206983, Final residual = 0.00157231, No Iterations 6
smoothSolver:  Solving for Uy, Initial residual = 0.0117511, Final residual = 0.000831098, No Iterations 6
GAMG:  Solving for p, Initial residual = 0.0125294, Final residual = 0.000785353, No Iterations 2
time step continuity errors : sum local = 0.00199781, global = 0.000139729, cumulative = 0.00927222
smoothSolver:  Solving for omega, Initial residual = 0.00405242, Final residual = 0.000280783, No Iterations 6
smoothSolver:  Solving for k, Initial residual = 0.0383708, Final residual = 0.00310036, No Iterations 6
ExecutionTime = 0.4 s  ClockTime = 0 s

scalarTransport execute: age
smoothSolver:  Solving for age, Initial residual = 0.0184205, Final residual = 0.0017509, No Iterations 5

Time = 32

smoothSolver:  Solving for Ux, Initial residual = 0.020663, Final residual = 0.00156794, No Iterations 6
smoothSolver:  Solving for Uy, Initial residual = 0.0114525, Final residual = 0.000810099, No Iterations 6
GAMG:  Solving for p, Initial residual = 0.0122831, Final residual = 0.000802263, No Iterations 2
time step continuity errors : sum local = 0.00203203, global = 0.000136237, cumulative = 0.00940846
smoothSolver:  Solving for omega, Initial residual = 0.0038209, Final residual = 0.000264111, No Iterations 6
smoothSolver:  Solving for k, Initial residual = 0.0368687, Final residual = 0.00298159, No Iterations 6
ExecutionTime = 0.42 s  ClockTime = 0 s

scalarTransport execute: age
smoothSolver:  Solving for age, Initial residual = 0.0185021, Final residual = 0.00146855, No Iterations 6

Time = 33

smoothSolver:  Solving for Ux, Initial residual = 0.0206183, Final residual = 0.00156313, No Iterations 6
smoothSolver:  Solving for Uy, Initial residual = 0.0111104, Final residual = 0.000786832, No Iterations 6
GAMG:  Solving for p, Initial residual = 0.0118104, Final residual = 0.000800712, No Iterations 2
time step continuity errors : sum local = 0.00202113, global = 0.000132467, cumulative = 0.00954093
smoothSolver:  Solving for omega, Initial residual = 0.00360891, Final residual = 0.000248685, No Iterations 6
smoothSolver:  Solving for k, Initial residual = 0.0354608, Final residual = 0.00287008, No Iterations 6
ExecutionTime = 0.43 s  ClockTime = 0 s

scalarTransport execute: age
smoothSolver:  Solving for age, Initial residual = 0.0184236, Final residual = 0.0014852, No Iterations 6

Time = 34

smoothSolver:  Solving for Ux, Initial residual = 0.0205728, Final residual = 0.00155706, No Iterations 6
smoothSolver:  Solving for Uy, Initial residual = 0.0107322, Final residual = 0.000762344, No Iterations 6
GAMG:  Solving for p, Initial residual = 0.0111881, Final residual = 0.000786536, No Iterations 2
time step continuity errors : sum local = 0.00197873, global = 0.00012715, cumulative = 0.00966808
smoothSolver:  Solving for omega, Initial residual = 0.00341406, Final residual = 0.000234384, No Iterations 6
smoothSolver:  Solving for k, Initial residual = 0.0341403, Final residual = 0.00276554, No Iterations 6
ExecutionTime = 0.44 s  ClockTime = 0 s

scalarTransport execute: age
smoothSolver:  Solving for age, Initial residual = 0.018306, Final residual = 0.00152477, No Iterations 6

Time = 35

smoothSolver:  Solving for Ux, Initial residual = 0.0204857, Final residual = 0.00155082, No Iterations 6
smoothSolver:  Solving for Uy, Initial residual = 0.0103415, Final residual = 0.000738394, No Iterations 6
GAMG:  Solving for p, Initial residual = 0.0106092, Final residual = 0.000780605, No Iterations 2
time step continuity errors : sum local = 0.00195972, global = 0.000116034, cumulative = 0.00978411
smoothSolver:  Solving for omega, Initial residual = 0.00323324, Final residual = 0.000221083, No Iterations 6
smoothSolver:  Solving for k, Initial residual = 0.032898, Final residual = 0.00266744, No Iterations 6
ExecutionTime = 0.45 s  ClockTime = 0 s

scalarTransport execute: age
smoothSolver:  Solving for age, Initial residual = 0.0182259, Final residual = 0.00158083, No Iterations 6

Time = 36

smoothSolver:  Solving for Ux, Initial residual = 0.0204011, Final residual = 0.00154273, No Iterations 6
smoothSolver:  Solving for Uy, Initial residual = 0.00997465, Final residual = 0.000716336, No Iterations 6
GAMG:  Solving for p, Initial residual = 0.0101764, Final residual = 0.000790274, No Iterations 2
time step continuity errors : sum local = 0.00198175, global = 0.00010395, cumulative = 0.00988806
smoothSolver:  Solving for omega, Initial residual = 0.00306365, Final residual = 0.000208685, No Iterations 6
smoothSolver:  Solving for k, Initial residual = 0.0317321, Final residual = 0.00257569, No Iterations 6
ExecutionTime = 0.46 s  ClockTime = 0 s

scalarTransport execute: age
smoothSolver:  Solving for age, Initial residual = 0.0193525, Final residual = 0.00164483, No Iterations 6

Time = 37

smoothSolver:  Solving for Ux, Initial residual = 0.0202949, Final residual = 0.00153421, No Iterations 6
smoothSolver:  Solving for Uy, Initial residual = 0.00967277, Final residual = 0.000698029, No Iterations 6
GAMG:  Solving for p, Initial residual = 0.00972576, Final residual = 0.000839736, No Iterations 2
time step continuity errors : sum local = 0.00209491, global = 9.44753e-05, cumulative = 0.00998254
smoothSolver:  Solving for omega, Initial residual = 0.00290711, Final residual = 0.000197124, No Iterations 6
smoothSolver:  Solving for k, Initial residual = 0.0306429, Final residual = 0.00249006, No Iterations 6
ExecutionTime = 0.47 s  ClockTime = 0 s

scalarTransport execute: age
smoothSolver:  Solving for age, Initial residual = 0.0186805, Final residual = 0.00170729, No Iterations 6

Time = 38

smoothSolver:  Solving for Ux, Initial residual = 0.0202092, Final residual = 0.00152453, No Iterations 6
smoothSolver:  Solving for Uy, Initial residual = 0.00941748, Final residual = 0.000682281, No Iterations 6
GAMG:  Solving for p, Initial residual = 0.00951751, Final residual = 0.00091269, No Iterations 2
time step continuity errors : sum local = 0.00227116, global = 8.72452e-05, cumulative = 0.0100698
smoothSolver:  Solving for omega, Initial residual = 0.00276081, Final residual = 0.000186335, No Iterations 6
smoothSolver:  Solving for k, Initial residual = 0.0296249, Final residual = 0.00241002, No Iterations 6
ExecutionTime = 0.48 s  ClockTime = 0 s

scalarTransport execute: age
smoothSolver:  Solving for age, Initial residual = 0.0185085, Final residual = 0.00177919, No Iterations 6

Time = 39

smoothSolver:  Solving for Ux, Initial residual = 0.0201235, Final residual = 0.0015131, No Iterations 6
smoothSolver:  Solving for Uy, Initial residual = 0.00917768, Final residual = 0.000668101, No Iterations 6
GAMG:  Solving for p, Initial residual = 0.00939466, Final residual = 0.000660915, No Iterations 3
time step continuity errors : sum local = 0.00164049, global = 9.03022e-05, cumulative = 0.0101601
smoothSolver:  Solving for omega, Initial residual = 0.00264168, Final residual = 0.000176627, No Iterations 6
smoothSolver:  Solving for k, Initial residual = 0.0286739, Final residual = 0.00233523, No Iterations 6
ExecutionTime = 0.5 s  ClockTime = 0 s

scalarTransport execute: age
smoothSolver:  Solving for age, Initial residual = 0.0186008, Final residual = 0.00158537, No Iterations 7

Time = 40

smoothSolver:  Solving for Ux, Initial residual = 0.0202006, Final residual = 0.00151142, No Iterations 6
smoothSolver:  Solving for Uy, Initial residual = 0.0090869, Final residual = 0.000662961, No Iterations 6
GAMG:  Solving for p, Initial residual = 0.00927805, Final residual = 0.000811614, No Iterations 2
time step continuity errors : sum local = 0.00200502, global = 7.83444e-05, cumulative = 0.0102384
smoothSolver:  Solving for omega, Initial residual = 0.0024889, Final residual = 0.000166838, No Iterations 6
smoothSolver:  Solving for k, Initial residual = 0.0277847, Final residual = 0.00226513, No Iterations 6
ExecutionTime = 0.51 s  ClockTime = 0 s

scalarTransport execute: age
smoothSolver:  Solving for age, Initial residual = 0.0185229, Final residual = 0.00158814, No Iterations 7

Time = 41

smoothSolver:  Solving for Ux, Initial residual = 0.0199615, Final residual = 0.00149592, No Iterations 6
smoothSolver:  Solving for Uy, Initial residual = 0.0087783, Final residual = 0.000645985, No Iterations 6
GAMG:  Solving for p, Initial residual = 0.00913168, Final residual = 0.000548886, No Iterations 3
time step continuity errors : sum local = 0.00135466, global = 8.11361e-05, cumulative = 0.0103196
smoothSolver:  Solving for omega, Initial residual = 0.00236973, Final residual = 0.000158056, No Iterations 6
smoothSolver:  Solving for k, Initial residual = 0.0269579, Final residual = 0.00219932, No Iterations 6
ExecutionTime = 0.52 s  ClockTime = 0 s

scalarTransport execute: age
smoothSolver:  Solving for age, Initial residual = 0.0184606, Final residual = 0.00162747, No Iterations 7

Time = 42

smoothSolver:  Solving for Ux, Initial residual = 0.019825, Final residual = 0.00147498, No Iterations 6
smoothSolver:  Solving for Uy, Initial residual = 0.00862438, Final residual = 0.000635898, No Iterations 6
GAMG:  Solving for p, Initial residual = 0.00884675, Final residual = 0.000870179, No Iterations 2
time step continuity errors : sum local = 0.00214789, global = 6.91556e-05, cumulative = 0.0103887
smoothSolver:  Solving for omega, Initial residual = 0.00225698, Final residual = 0.000149803, No Iterations 6
smoothSolver:  Solving for k, Initial residual = 0.026179, Final residual = 0.00213698, No Iterations 6
ExecutionTime = 0.53 s  ClockTime = 0 s

scalarTransport execute: age
smoothSolver:  Solving for age, Initial residual = 0.0183781, Final residual = 0.00167639, No Iterations 7

Time = 43

smoothSolver:  Solving for Ux, Initial residual = 0.019567, Final residual = 0.00145662, No Iterations 6
smoothSolver:  Solving for Uy, Initial residual = 0.00845208, Final residual = 0.000625148, No Iterations 6
GAMG:  Solving for p, Initial residual = 0.00886055, Final residual = 0.000667739, No Iterations 3
time step continuity errors : sum local = 0.00164555, global = 8.11916e-05, cumulative = 0.0104699
smoothSolver:  Solving for omega, Initial residual = 0.00215225, Final residual = 0.000141941, No Iterations 6
smoothSolver:  Solving for k, Initial residual = 0.0254571, Final residual = 0.00207826, No Iterations 6
ExecutionTime = 0.54 s  ClockTime = 0 s

scalarTransport execute: age
smoothSolver:  Solving for age, Initial residual = 0.0185188, Final residual = 0.00174216, No Iterations 7

Time = 44

smoothSolver:  Solving for Ux, Initial residual = 0.0194753, Final residual = 0.00143779, No Iterations 6
smoothSolver:  Solving for Uy, Initial residual = 0.00846774, Final residual = 0.000631178, No Iterations 6
GAMG:  Solving for p, Initial residual = 0.00864136, Final residual = 0.000543527, No Iterations 3
time step continuity errors : sum local = 0.00133759, global = 7.49448e-05, cumulative = 0.0105449
smoothSolver:  Solving for omega, Initial residual = 0.00206056, Final residual = 0.000134604, No Iterations 6
smoothSolver:  Solving for k, Initial residual = 0.0247724, Final residual = 0.00202263, No Iterations 6
ExecutionTime = 0.56 s  ClockTime = 0 s

scalarTransport execute: age
smoothSolver:  Solving for age, Initial residual = 0.0187071, Final residual = 0.00158418, No Iterations 8

Time = 45

smoothSolver:  Solving for Ux, Initial residual = 0.0193469, Final residual = 0.00142874, No Iterations 6
smoothSolver:  Solving for Uy, Initial residual = 0.00842267, Final residual = 0.000629349, No Iterations 6
GAMG:  Solving for p, Initial residual = 0.00835521, Final residual = 0.000530596, No Iterations 3
time step continuity errors : sum local = 0.0013008, global = 6.78919e-05, cumulative = 0.0106127
smoothSolver:  Solving for omega, Initial residual = 0.00195754, Final residual = 0.000127715, No Iterations 6
smoothSolver:  Solving for k, Initial residual = 0.0241283, Final residual = 0.00197008, No Iterations 6
ExecutionTime = 0.57 s  ClockTime = 0 s

scalarTransport execute: age
smoothSolver:  Solving for age, Initial residual = 0.0187761, Final residual = 0.00167049, No Iterations 8

Time = 46

smoothSolver:  Solving for Ux, Initial residual = 0.0191785, Final residual = 0.00141703, No Iterations 6
smoothSolver:  Solving for Uy, Initial residual = 0.00836137, Final residual = 0.000628565, No Iterations 6
GAMG:  Solving for p, Initial residual = 0.00812575, Final residual = 0.00051715, No Iterations 3
time step continuity errors : sum local = 0.00126424, global = 6.50699e-05, cumulative = 0.0106778
smoothSolver:  Solving for omega, Initial residual = 0.00186776, Final residual = 0.000121348, No Iterations 6
smoothSolver:  Solving for k, Initial residual = 0.0235199, Final residual = 0.00192031, No Iterations 6
ExecutionTime = 0.58 s  ClockTime = 0 s

scalarTransport execute: age
smoothSolver:  Solving for age, Initial residual = 0.0189258, Final residual = 0.00177046, No Iterations 8

Time = 47

smoothSolver:  Solving for Ux, Initial residual = 0.0189867, Final residual = 0.00140205, No Iterations 6
smoothSolver:  Solving for Uy, Initial residual = 0.00831247, Final residual = 0.000628219, No Iterations 6
GAMG:  Solving for p, Initial residual = 0.00788638, Final residual = 0.000530469, No Iterations 3
time step continuity errors : sum local = 0.00129336, global = 6.42448e-05, cumulative = 0.0107421
smoothSolver:  Solving for omega, Initial residual = 0.00178592, Final residual = 0.000177722, No Iterations 5
smoothSolver:  Solving for k, Initial residual = 0.0229573, Final residual = 0.00187398, No Iterations 6
ExecutionTime = 0.59 s  ClockTime = 0 s

scalarTransport execute: age
smoothSolver:  Solving for age, Initial residual = 0.0191619, Final residual = 0.00185279, No Iterations 8

Time = 48

smoothSolver:  Solving for Ux, Initial residual = 0.0187892, Final residual = 0.00138649, No Iterations 6
smoothSolver:  Solving for Uy, Initial residual = 0.0083036, Final residual = 0.000631526, No Iterations 6
GAMG:  Solving for p, Initial residual = 0.00767077, Final residual = 0.000531021, No Iterations 3
time step continuity errors : sum local = 0.00129084, global = 6.8176e-05, cumulative = 0.0108102
smoothSolver:  Solving for omega, Initial residual = 0.00171689, Final residual = 0.000169736, No Iterations 5
smoothSolver:  Solving for k, Initial residual = 0.0224306, Final residual = 0.00183035, No Iterations 6
ExecutionTime = 0.6 s  ClockTime = 0 s

scalarTransport execute: age
smoothSolver:  Solving for age, Initial residual = 0.0192813, Final residual = 0.00190827, No Iterations 8

Time = 49

smoothSolver:  Solving for Ux, Initial residual = 0.01858, Final residual = 0.00137006, No Iterations 6
smoothSolver:  Solving for Uy, Initial residual = 0.00831695, Final residual = 0.000636194, No Iterations 6
GAMG:  Solving for p, Initial residual = 0.0074064, Final residual = 0.000525906, No Iterations 3
time step continuity errors : sum local = 0.00127493, global = 7.07152e-05, cumulative = 0.010881
smoothSolver:  Solving for omega, Initial residual = 0.00165297, Final residual = 0.000162219, No Iterations 5
smoothSolver:  Solving for k, Initial residual = 0.0219281, Final residual = 0.00178856, No Iterations 6
ExecutionTime = 0.61 s  ClockTime = 0 s

scalarTransport execute: age
smoothSolver:  Solving for age, Initial residual = 0.0193634, Final residual = 0.00165704, No Iterations 9

Time = 50

smoothSolver:  Solving for Ux, Initial residual = 0.0183809, Final residual = 0.00135543, No Iterations 6
smoothSolver:  Solving for Uy, Initial residual = 0.00832667, Final residual = 0.000640307, No Iterations 6
GAMG:  Solving for p, Initial residual = 0.00716204, Final residual = 0.000512834, No Iterations 3
time step continuity errors : sum local = 0.00123893, global = 7.07062e-05, cumulative = 0.0109517
smoothSolver:  Solving for omega, Initial residual = 0.00158872, Final residual = 0.000155107, No Iterations 5
smoothSolver:  Solving for k, Initial residual = 0.0214461, Final residual = 0.00174838, No Iterations 6
ExecutionTime = 0.63 s  ClockTime = 0 s

scalarTransport execute: age
smoothSolver:  Solving for age, Initial residual = 0.0192797, Final residual = 0.00191542, No Iterations 8

Time = 51

smoothSolver:  Solving for Ux, Initial residual = 0.0181649, Final residual = 0.00134027, No Iterations 6
smoothSolver:  Solving for Uy, Initial residual = 0.00834279, Final residual = 0.000644657, No Iterations 6
GAMG:  Solving for p, Initial residual = 0.00694675, Final residual = 0.000511829, No Iterations 3
time step continuity errors : sum local = 0.00123236, global = 7.22671e-05, cumulative = 0.0110239
smoothSolver:  Solving for omega, Initial residual = 0.00152613, Final residual = 0.000148324, No Iterations 5
smoothSolver:  Solving for k, Initial residual = 0.0209845, Final residual = 0.00170972, No Iterations 6
ExecutionTime = 0.64 s  ClockTime = 0 s

scalarTransport execute: age
smoothSolver:  Solving for age, Initial residual = 0.0192771, Final residual = 0.00191901, No Iterations 8

Time = 52

smoothSolver:  Solving for Ux, Initial residual = 0.0179222, Final residual = 0.00132364, No Iterations 6
smoothSolver:  Solving for Uy, Initial residual = 0.00837156, Final residual = 0.000650485, No Iterations 6
GAMG:  Solving for p, Initial residual = 0.00676821, Final residual = 0.000506424, No Iterations 3
time step continuity errors : sum local = 0.00121551, global = 7.56759e-05, cumulative = 0.0110996
smoothSolver:  Solving for omega, Initial residual = 0.00147343, Final residual = 0.000141832, No Iterations 5
smoothSolver:  Solving for k, Initial residual = 0.0205431, Final residual = 0.00167252, No Iterations 6
ExecutionTime = 0.65 s  ClockTime = 0 s

scalarTransport execute: age
smoothSolver:  Solving for age, Initial residual = 0.0192869, Final residual = 0.00188945, No Iterations 8

Time = 53

smoothSolver:  Solving for Ux, Initial residual = 0.0176829, Final residual = 0.00130709, No Iterations 6
smoothSolver:  Solving for Uy, Initial residual = 0.00839611, Final residual = 0.000655713, No Iterations 6
GAMG:  Solving for p, Initial residual = 0.00661891, Final residual = 0.000508566, No Iterations 3
time step continuity errors : sum local = 0.00121661, global = 7.77338e-05, cumulative = 0.0111773
smoothSolver:  Solving for omega, Initial residual = 0.00142757, Final residual = 0.000135605, No Iterations 5
smoothSolver:  Solving for k, Initial residual = 0.0201192, Final residual = 0.00163661, No Iterations 6
ExecutionTime = 0.66 s  ClockTime = 0 s

scalarTransport execute: age
smoothSolver:  Solving for age, Initial residual = 0.0191821, Final residual = 0.00183228, No Iterations 8

Time = 54

smoothSolver:  Solving for Ux, Initial residual = 0.0174471, Final residual = 0.00129034, No Iterations 6
smoothSolver:  Solving for Uy, Initial residual = 0.00842803, Final residual = 0.000660508, No Iterations 6
GAMG:  Solving for p, Initial residual = 0.00650524, Final residual = 0.000509926, No Iterations 3
time step continuity errors : sum local = 0.00121566, global = 7.87032e-05, cumulative = 0.011256
smoothSolver:  Solving for omega, Initial residual = 0.00137972, Final residual = 0.000129841, No Iterations 5
smoothSolver:  Solving for k, Initial residual = 0.0197086, Final residual = 0.0016018, No Iterations 6
ExecutionTime = 0.67 s  ClockTime = 0 s

scalarTransport execute: age
smoothSolver:  Solving for age, Initial residual = 0.0190554, Final residual = 0.00178331, No Iterations 8

Time = 55

smoothSolver:  Solving for Ux, Initial residual = 0.0172232, Final residual = 0.00127357, No Iterations 6
smoothSolver:  Solving for Uy, Initial residual = 0.00845588, Final residual = 0.000664304, No Iterations 6
GAMG:  Solving for p, Initial residual = 0.00643053, Final residual = 0.000514481, No Iterations 3
time step continuity errors : sum local = 0.00122158, global = 7.90323e-05, cumulative = 0.0113351
smoothSolver:  Solving for omega, Initial residual = 0.00133148, Final residual = 0.000124297, No Iterations 5
smoothSolver:  Solving for k, Initial residual = 0.0193104, Final residual = 0.00156803, No Iterations 6
ExecutionTime = 0.69 s  ClockTime = 0 s

scalarTransport execute: age
smoothSolver:  Solving for age, Initial residual = 0.0189992, Final residual = 0.00173832, No Iterations 8

Time = 56

smoothSolver:  Solving for Ux, Initial residual = 0.0170127, Final residual = 0.00125698, No Iterations 6
smoothSolver:  Solving for Uy, Initial residual = 0.00847994, Final residual = 0.000667093, No Iterations 6
GAMG:  Solving for p, Initial residual = 0.00643845, Final residual = 0.000517993, No Iterations 3
time step continuity errors : sum local = 0.00122527, global = 7.87278e-05, cumulative = 0.0114138
smoothSolver:  Solving for omega, Initial residual = 0.00129323, Final residual = 0.000118962, No Iterations 5
smoothSolver:  Solving for k, Initial residual = 0.0189257, Final residual = 0.00153521, No Iterations 6
ExecutionTime = 0.7 s  ClockTime = 0 s

scalarTransport execute: age
smoothSolver:  Solving for age, Initial residual = 0.0189869, Final residual = 0.00171272, No Iterations 8

Time = 57

smoothSolver:  Solving for Ux, Initial residual = 0.0168208, Final residual = 0.00124096, No Iterations 6
smoothSolver:  Solving for Uy, Initial residual = 0.0084883, Final residual = 0.000668461, No Iterations 6
GAMG:  Solving for p, Initial residual = 0.00649464, Final residual = 0.00052343, No Iterations 3
time step continuity errors : sum local = 0.00123428, global = 7.80441e-05, cumulative = 0.0114918
smoothSolver:  Solving for omega, Initial residual = 0.0012544, Final residual = 0.000114159, No Iterations 5
smoothSolver:  Solving for k, Initial residual = 0.0185501, Final residual = 0.00150322, No Iterations 6
ExecutionTime = 0.71 s  ClockTime = 0 s

scalarTransport execute: age
smoothSolver:  Solving for age, Initial residual = 0.0193654, Final residual = 0.00185301, No Iterations 8

Time = 58

smoothSolver:  Solving for Ux, Initial residual = 0.016642, Final residual = 0.00122553, No Iterations 6
smoothSolver:  Solving for Uy, Initial residual = 0.0084859, Final residual = 0.000668417, No Iterations 6
GAMG:  Solving for p, Initial residual = 0.00643794, Final residual = 0.000523545, No Iterations 3
time step continuity errors : sum local = 0.00122748, global = 7.9295e-05, cumulative = 0.0115711
smoothSolver:  Solving for omega, Initial residual = 0.00122053, Final residual = 0.00010967, No Iterations 5
smoothSolver:  Solving for k, Initial residual = 0.018183, Final residual = 0.00147194, No Iterations 6
ExecutionTime = 0.72 s  ClockTime = 0 s

scalarTransport execute: age
smoothSolver:  Solving for age, Initial residual = 0.0193926, Final residual = 0.00188603, No Iterations 8

Time = 59

smoothSolver:  Solving for Ux, Initial residual = 0.0164645, Final residual = 0.00121062, No Iterations 6
smoothSolver:  Solving for Uy, Initial residual = 0.00847237, Final residual = 0.000667367, No Iterations 6
GAMG:  Solving for p, Initial residual = 0.00644646, Final residual = 0.000533862, No Iterations 3
time step continuity errors : sum local = 0.00124624, global = 7.74015e-05, cumulative = 0.0116485
smoothSolver:  Solving for omega, Initial residual = 0.00118763, Final residual = 0.000105401, No Iterations 5
smoothSolver:  Solving for k, Initial residual = 0.0178253, Final residual = 0.00144131, No Iterations 6
ExecutionTime = 0.73 s  ClockTime = 0 s

scalarTransport execute: age
smoothSolver:  Solving for age, Initial residual = 0.019545, Final residual = 0.00195103, No Iterations 8

Time = 60

smoothSolver:  Solving for Ux, Initial residual = 0.0162977, Final residual = 0.00119646, No Iterations 6
smoothSolver:  Solving for Uy, Initial residual = 0.00843396, Final residual = 0.00066393, No Iterations 6
GAMG:  Solving for p, Initial residual = 0.00645709, Final residual = 0.000525958, No Iterations 3
time step continuity errors : sum local = 0.00122179, global = 7.23587e-05, cumulative = 0.0117209
smoothSolver:  Solving for omega, Initial residual = 0.00115532, Final residual = 0.000101274, No Iterations 5
smoothSolver:  Solving for k, Initial residual = 0.0174726, Final residual = 0.0014113, No Iterations 6
ExecutionTime = 0.75 s  ClockTime = 0 s

scalarTransport execute: age
smoothSolver:  Solving for age, Initial residual = 0.0195854, Final residual = 0.00172724, No Iterations 9

Time = 61

smoothSolver:  Solving for Ux, Initial residual = 0.0161445, Final residual = 0.00118372, No Iterations 6
smoothSolver:  Solving for Uy, Initial residual = 0.00836823, Final residual = 0.000658056, No Iterations 6
GAMG:  Solving for p, Initial residual = 0.00648706, Final residual = 0.00053819, No Iterations 3
time step continuity errors : sum local = 0.00124444, global = 6.63404e-05, cumulative = 0.0117872
smoothSolver:  Solving for omega, Initial residual = 0.00112496, Final residual = 9.7409e-05, No Iterations 5
smoothSolver:  Solving for k, Initial residual = 0.0171267, Final residual = 0.00138187, No Iterations 6
ExecutionTime = 0.76 s  ClockTime = 0 s

scalarTransport execute: age
smoothSolver:  Solving for age, Initial residual = 0.0195356, Final residual = 0.00175911, No Iterations 9

Time = 62

smoothSolver:  Solving for Ux, Initial residual = 0.0159779, Final residual = 0.00117051, No Iterations 6
smoothSolver:  Solving for Uy, Initial residual = 0.00830125, Final residual = 0.000652188, No Iterations 6
GAMG:  Solving for p, Initial residual = 0.00652778, Final residual = 0.000538053, No Iterations 3
time step continuity errors : sum local = 0.00123923, global = 6.35607e-05, cumulative = 0.0118508
smoothSolver:  Solving for omega, Initial residual = 0.00109689, Final residual = 9.38896e-05, No Iterations 5
smoothSolver:  Solving for k, Initial residual = 0.0167863, Final residual = 0.0013529, No Iterations 6
ExecutionTime = 0.77 s  ClockTime = 0 s

scalarTransport execute: age
smoothSolver:  Solving for age, Initial residual = 0.0193169, Final residual = 0.00175576, No Iterations 9

Time = 63

smoothSolver:  Solving for Ux, Initial residual = 0.0158059, Final residual = 0.00115686, No Iterations 6
smoothSolver:  Solving for Uy, Initial residual = 0.00821817, Final residual = 0.000645239, No Iterations 6
GAMG:  Solving for p, Initial residual = 0.0065751, Final residual = 0.000547792, No Iterations 3
time step continuity errors : sum local = 0.00125742, global = 6.20682e-05, cumulative = 0.0119129
smoothSolver:  Solving for omega, Initial residual = 0.00107213, Final residual = 9.06065e-05, No Iterations 5
smoothSolver:  Solving for k, Initial residual = 0.0164523, Final residual = 0.00132434, No Iterations 6
ExecutionTime = 0.78 s  ClockTime = 0 s

scalarTransport execute: age
smoothSolver:  Solving for age, Initial residual = 0.0191146, Final residual = 0.0017711, No Iterations 9

Time = 64

smoothSolver:  Solving for Ux, Initial residual = 0.0156345, Final residual = 0.00114318, No Iterations 6
smoothSolver:  Solving for Uy, Initial residual = 0.00812004, Final residual = 0.000636993, No Iterations 6
GAMG:  Solving for p, Initial residual = 0.00664735, Final residual = 0.000545557, No Iterations 3
time step continuity errors : sum local = 0.00124839, global = 6.17353e-05, cumulative = 0.0119746
smoothSolver:  Solving for omega, Initial residual = 0.00104845, Final residual = 8.75576e-05, No Iterations 5
smoothSolver:  Solving for k, Initial residual = 0.0161223, Final residual = 0.00129614, No Iterations 6
ExecutionTime = 0.79 s  ClockTime = 0 s

scalarTransport execute: age
smoothSolver:  Solving for age, Initial residual = 0.0188586, Final residual = 0.00177195, No Iterations 9

Time = 65

smoothSolver:  Solving for Ux, Initial residual = 0.0154629, Final residual = 0.00112957, No Iterations 6
smoothSolver:  Solving for Uy, Initial residual = 0.00800668, Final residual = 0.000627371, No Iterations 6
GAMG:  Solving for p, Initial residual = 0.00670762, Final residual = 0.000548878, No Iterations 3
time step continuity errors : sum local = 0.00125169, global = 6.20711e-05, cumulative = 0.0120367
smoothSolver:  Solving for omega, Initial residual = 0.00102676, Final residual = 8.47093e-05, No Iterations 5
smoothSolver:  Solving for k, Initial residual = 0.0157965, Final residual = 0.0012683, No Iterations 6
ExecutionTime = 0.81 s  ClockTime = 0 s

scalarTransport execute: age
smoothSolver:  Solving for age, Initial residual = 0.0186769, Final residual = 0.00177753, No Iterations 9

Time = 66

smoothSolver:  Solving for Ux, Initial residual = 0.0152848, Final residual = 0.00111603, No Iterations 6
smoothSolver:  Solving for Uy, Initial residual = 0.00787643, Final residual = 0.000616374, No Iterations 6
GAMG:  Solving for p, Initial residual = 0.00678091, Final residual = 0.000546706, No Iterations 3
time step continuity errors : sum local = 0.00124265, global = 6.28328e-05, cumulative = 0.0120995
smoothSolver:  Solving for omega, Initial residual = 0.00100639, Final residual = 8.20559e-05, No Iterations 5
smoothSolver:  Solving for k, Initial residual = 0.015474, Final residual = 0.00124074, No Iterations 6
ExecutionTime = 0.82 s  ClockTime = 0 s

scalarTransport execute: age
smoothSolver:  Solving for age, Initial residual = 0.0182665, Final residual = 0.00176149, No Iterations 9

Time = 67

smoothSolver:  Solving for Ux, Initial residual = 0.015104, Final residual = 0.00110251, No Iterations 6
smoothSolver:  Solving for Uy, Initial residual = 0.00773207, Final residual = 0.000604294, No Iterations 6
GAMG:  Solving for p, Initial residual = 0.00686916, Final residual = 0.000544458, No Iterations 3
time step continuity errors : sum local = 0.00123381, global = 6.35945e-05, cumulative = 0.0121631
smoothSolver:  Solving for omega, Initial residual = 0.000988504, Final residual = 7.95874e-05, No Iterations 5
smoothSolver:  Solving for k, Initial residual = 0.015153, Final residual = 0.00121333, No Iterations 6
ExecutionTime = 0.83 s  ClockTime = 0 s

scalarTransport execute: age
smoothSolver:  Solving for age, Initial residual = 0.0177084, Final residual = 0.00172649, No Iterations 9

Time = 68

smoothSolver:  Solving for Ux, Initial residual = 0.0149146, Final residual = 0.00108847, No Iterations 6
smoothSolver:  Solving for Uy, Initial residual = 0.00757442, Final residual = 0.000591176, No Iterations 6
GAMG:  Solving for p, Initial residual = 0.00689921, Final residual = 0.000551586, No Iterations 3
time step continuity errors : sum local = 0.00124621, global = 6.68685e-05, cumulative = 0.01223
smoothSolver:  Solving for omega, Initial residual = 0.000970087, Final residual = 7.72524e-05, No Iterations 5
smoothSolver:  Solving for k, Initial residual = 0.0148345, Final residual = 0.00118611, No Iterations 6
ExecutionTime = 0.84 s  ClockTime = 0 s

scalarTransport execute: age
smoothSolver:  Solving for age, Initial residual = 0.0170138, Final residual = 0.00168062, No Iterations 9

Time = 69

smoothSolver:  Solving for Ux, Initial residual = 0.0147117, Final residual = 0.0010731, No Iterations 6
smoothSolver:  Solving for Uy, Initial residual = 0.00741608, Final residual = 0.000578527, No Iterations 6
GAMG:  Solving for p, Initial residual = 0.00695158, Final residual = 0.000534059, No Iterations 3
time step continuity errors : sum local = 0.00120309, global = 6.93272e-05, cumulative = 0.0122993
smoothSolver:  Solving for omega, Initial residual = 0.000954666, Final residual = 7.50241e-05, No Iterations 5
smoothSolver:  Solving for k, Initial residual = 0.0145182, Final residual = 0.00115906, No Iterations 6
ExecutionTime = 0.85 s  ClockTime = 0 s

scalarTransport execute: age
smoothSolver:  Solving for age, Initial residual = 0.0163539, Final residual = 0.00144962, No Iterations 10

Time = 70

smoothSolver:  Solving for Ux, Initial residual = 0.0145022, Final residual = 0.00105704, No Iterations 6
smoothSolver:  Solving for Uy, Initial residual = 0.00724832, Final residual = 0.000564654, No Iterations 6
GAMG:  Solving for p, Initial residual = 0.00706066, Final residual = 0.000530681, No Iterations 3
time step continuity errors : sum local = 0.00119179, global = 6.98524e-05, cumulative = 0.0123692
smoothSolver:  Solving for omega, Initial residual = 0.000938681, Final residual = 7.28918e-05, No Iterations 5
smoothSolver:  Solving for k, Initial residual = 0.0142044, Final residual = 0.00113213, No Iterations 6
ExecutionTime = 0.85 s  ClockTime = 0 s

scalarTransport execute: age
smoothSolver:  Solving for age, Initial residual = 0.0155515, Final residual = 0.00142351, No Iterations 10

Time = 71

smoothSolver:  Solving for Ux, Initial residual = 0.0142828, Final residual = 0.00104041, No Iterations 6
smoothSolver:  Solving for Uy, Initial residual = 0.00708594, Final residual = 0.00055169, No Iterations 6
GAMG:  Solving for p, Initial residual = 0.00721632, Final residual = 0.000502356, No Iterations 3
time step continuity errors : sum local = 0.00112532, global = 6.88763e-05, cumulative = 0.012438
smoothSolver:  Solving for omega, Initial residual = 0.000922699, Final residual = 7.08432e-05, No Iterations 5
smoothSolver:  Solving for k, Initial residual = 0.0138929, Final residual = 0.00110535, No Iterations 6
ExecutionTime = 0.88 s  ClockTime = 0 s

scalarTransport execute: age
smoothSolver:  Solving for age, Initial residual = 0.0148103, Final residual = 0.00139231, No Iterations 10

Time = 72

smoothSolver:  Solving for Ux, Initial residual = 0.0140528, Final residual = 0.00102285, No Iterations 6
smoothSolver:  Solving for Uy, Initial residual = 0.0069352, Final residual = 0.00054013, No Iterations 6
GAMG:  Solving for p, Initial residual = 0.00731272, Final residual = 0.0004924, No Iterations 3
time step continuity errors : sum local = 0.00110094, global = 6.74222e-05, cumulative = 0.0125054
smoothSolver:  Solving for omega, Initial residual = 0.00090632, Final residual = 6.88466e-05, No Iterations 5
smoothSolver:  Solving for k, Initial residual = 0.0135816, Final residual = 0.0010786, No Iterations 6
ExecutionTime = 0.89 s  ClockTime = 0 s

scalarTransport execute: age
smoothSolver:  Solving for age, Initial residual = 0.0141639, Final residual = 0.00136092, No Iterations 10

Time = 73

smoothSolver:  Solving for Ux, Initial residual = 0.0138164, Final residual = 0.00100465, No Iterations 6
smoothSolver:  Solving for Uy, Initial residual = 0.00680996, Final residual = 0.000530739, No Iterations 6
GAMG:  Solving for p, Initial residual = 0.00736503, Final residual = 0.000464585, No Iterations 3
time step continuity errors : sum local = 0.00103725, global = 6.58337e-05, cumulative = 0.0125713
smoothSolver:  Solving for omega, Initial residual = 0.000889607, Final residual = 6.68865e-05, No Iterations 5
smoothSolver:  Solving for k, Initial residual = 0.0132707, Final residual = 0.00105192, No Iterations 6
ExecutionTime = 0.9 s  ClockTime = 0 s

scalarTransport execute: age
smoothSolver:  Solving for age, Initial residual = 0.0135003, Final residual = 0.00133411, No Iterations 10

Time = 74

smoothSolver:  Solving for Ux, Initial residual = 0.0135675, Final residual = 0.000985862, No Iterations 6
smoothSolver:  Solving for Uy, Initial residual = 0.00670358, Final residual = 0.000522447, No Iterations 6
GAMG:  Solving for p, Initial residual = 0.00736824, Final residual = 0.000456897, No Iterations 3
time step continuity errors : sum local = 0.0010195, global = 6.08175e-05, cumulative = 0.0126321
smoothSolver:  Solving for omega, Initial residual = 0.000873313, Final residual = 6.49739e-05, No Iterations 5
smoothSolver:  Solving for k, Initial residual = 0.0129602, Final residual = 0.00102529, No Iterations 6
ExecutionTime = 0.91 s  ClockTime = 0 s

scalarTransport execute: age
smoothSolver:  Solving for age, Initial residual = 0.0129441, Final residual = 0.00115611, No Iterations 11

Time = 75

smoothSolver:  Solving for Ux, Initial residual = 0.0133145, Final residual = 0.000966752, No Iterations 6
smoothSolver:  Solving for Uy, Initial residual = 0.00660483, Final residual = 0.000515228, No Iterations 6
GAMG:  Solving for p, Initial residual = 0.00732592, Final residual = 0.000433326, No Iterations 3
time step continuity errors : sum local = 0.000966708, global = 5.88993e-05, cumulative = 0.012691
smoothSolver:  Solving for omega, Initial residual = 0.000857776, Final residual = 6.30799e-05, No Iterations 5
smoothSolver:  Solving for k, Initial residual = 0.0126509, Final residual = 0.000998766, No Iterations 6
ExecutionTime = 0.92 s  ClockTime = 0 s

scalarTransport execute: age
smoothSolver:  Solving for age, Initial residual = 0.0124005, Final residual = 0.00113371, No Iterations 11

Time = 76

smoothSolver:  Solving for Ux, Initial residual = 0.0130495, Final residual = 0.000946822, No Iterations 6
smoothSolver:  Solving for Uy, Initial residual = 0.00651802, Final residual = 0.000508358, No Iterations 6
GAMG:  Solving for p, Initial residual = 0.00724202, Final residual = 0.000426694, No Iterations 3
time step continuity errors : sum local = 0.000951616, global = 5.71152e-05, cumulative = 0.0127481
smoothSolver:  Solving for omega, Initial residual = 0.00084088, Final residual = 6.12083e-05, No Iterations 5
smoothSolver:  Solving for k, Initial residual = 0.0123424, Final residual = 0.000972396, No Iterations 6
ExecutionTime = 0.94 s  ClockTime = 0 s

scalarTransport execute: age
smoothSolver:  Solving for age, Initial residual = 0.0119152, Final residual = 0.00111443, No Iterations 11

Time = 77

smoothSolver:  Solving for Ux, Initial residual = 0.0127769, Final residual = 0.000926436, No Iterations 6
smoothSolver:  Solving for Uy, Initial residual = 0.00643232, Final residual = 0.000501946, No Iterations 6
GAMG:  Solving for p, Initial residual = 0.0071065, Final residual = 0.000416221, No Iterations 3
time step continuity errors : sum local = 0.00092738, global = 5.56648e-05, cumulative = 0.0128038
smoothSolver:  Solving for omega, Initial residual = 0.000824278, Final residual = 5.93273e-05, No Iterations 5
smoothSolver:  Solving for k, Initial residual = 0.012036, Final residual = 0.000946213, No Iterations 6
ExecutionTime = 0.95 s  ClockTime = 0 s

scalarTransport execute: age
smoothSolver:  Solving for age, Initial residual = 0.011451, Final residual = 0.00109933, No Iterations 11

Time = 78

smoothSolver:  Solving for Ux, Initial residual = 0.0125025, Final residual = 0.000905491, No Iterations 6
smoothSolver:  Solving for Uy, Initial residual = 0.00635408, Final residual = 0.000495582, No Iterations 6
GAMG:  Solving for p, Initial residual = 0.00695913, Final residual = 0.00041119, No Iterations 3
time step continuity errors : sum local = 0.000915623, global = 5.4325e-05, cumulative = 0.0128581
smoothSolver:  Solving for omega, Initial residual = 0.000806184, Final residual = 5.74819e-05, No Iterations 5
smoothSolver:  Solving for k, Initial residual = 0.0117322, Final residual = 0.000920261, No Iterations 6
ExecutionTime = 0.96 s  ClockTime = 0 s

scalarTransport execute: age
smoothSolver:  Solving for age, Initial residual = 0.0110643, Final residual = 0.00108972, No Iterations 11

Time = 79

smoothSolver:  Solving for Ux, Initial residual = 0.0122257, Final residual = 0.000884308, No Iterations 6
smoothSolver:  Solving for Uy, Initial residual = 0.00627284, Final residual = 0.00048903, No Iterations 6
GAMG:  Solving for p, Initial residual = 0.00683261, Final residual = 0.000405568, No Iterations 3
time step continuity errors : sum local = 0.000902261, global = 5.28031e-05, cumulative = 0.0129109
smoothSolver:  Solving for omega, Initial residual = 0.000789574, Final residual = 5.56531e-05, No Iterations 5
smoothSolver:  Solving for k, Initial residual = 0.0114321, Final residual = 0.000894566, No Iterations 6
ExecutionTime = 0.97 s  ClockTime = 1 s

scalarTransport execute: age
smoothSolver:  Solving for age, Initial residual = 0.0107328, Final residual = 0.000956217, No Iterations 12

Time = 80

smoothSolver:  Solving for Ux, Initial residual = 0.0119468, Final residual = 0.000862743, No Iterations 6
smoothSolver:  Solving for Uy, Initial residual = 0.0061921, Final residual = 0.000482081, No Iterations 6
GAMG:  Solving for p, Initial residual = 0.00669433, Final residual = 0.000401655, No Iterations 3
time step continuity errors : sum local = 0.000892717, global = 5.08859e-05, cumulative = 0.0129618
smoothSolver:  Solving for omega, Initial residual = 0.000773287, Final residual = 5.38507e-05, No Iterations 5
smoothSolver:  Solving for k, Initial residual = 0.0111363, Final residual = 0.000869148, No Iterations 6
ExecutionTime = 0.98 s  ClockTime = 1 s

scalarTransport execute: age
smoothSolver:  Solving for age, Initial residual = 0.0104027, Final residual = 0.0009492, No Iterations 12

Time = 81

smoothSolver:  Solving for Ux, Initial residual = 0.0116677, Final residual = 0.000840822, No Iterations 6
smoothSolver:  Solving for Uy, Initial residual = 0.00611144, Final residual = 0.000474719, No Iterations 6
GAMG:  Solving for p, Initial residual = 0.00654056, Final residual = 0.000399055, No Iterations 3
time step continuity errors : sum local = 0.000886107, global = 4.84141e-05, cumulative = 0.0130102
smoothSolver:  Solving for omega, Initial residual = 0.000756216, Final residual = 5.20783e-05, No Iterations 5
smoothSolver:  Solving for k, Initial residual = 0.0108453, Final residual = 0.000844114, No Iterations 6
ExecutionTime = 1 s  ClockTime = 1 s

scalarTransport execute: age
smoothSolver:  Solving for age, Initial residual = 0.010111, Final residual = 0.0009414, No Iterations 12

Time = 82

smoothSolver:  Solving for Ux, Initial residual = 0.0113836, Final residual = 0.000818815, No Iterations 6
smoothSolver:  Solving for Uy, Initial residual = 0.00602712, Final residual = 0.000466958, No Iterations 6
GAMG:  Solving for p, Initial residual = 0.00639517, Final residual = 0.000397812, No Iterations 3
time step continuity errors : sum local = 0.000882244, global = 4.53655e-05, cumulative = 0.0130556
smoothSolver:  Solving for omega, Initial residual = 0.0007391, Final residual = 5.03379e-05, No Iterations 5
smoothSolver:  Solving for k, Initial residual = 0.0105591, Final residual = 0.000819452, No Iterations 6
ExecutionTime = 1.01 s  ClockTime = 1 s

scalarTransport execute: age
smoothSolver:  Solving for age, Initial residual = 0.00983737, Final residual = 0.000932469, No Iterations 12

Time = 83

smoothSolver:  Solving for Ux, Initial residual = 0.0110943, Final residual = 0.000796415, No Iterations 6
smoothSolver:  Solving for Uy, Initial residual = 0.00594109, Final residual = 0.000458795, No Iterations 6
GAMG:  Solving for p, Initial residual = 0.00625939, Final residual = 0.00039705, No Iterations 3
time step continuity errors : sum local = 0.000879253, global = 4.17164e-05, cumulative = 0.0130973
smoothSolver:  Solving for omega, Initial residual = 0.000723145, Final residual = 4.86361e-05, No Iterations 5
smoothSolver:  Solving for k, Initial residual = 0.010278, Final residual = 0.000795126, No Iterations 6
ExecutionTime = 1.02 s  ClockTime = 1 s

scalarTransport execute: age
smoothSolver:  Solving for age, Initial residual = 0.00957496, Final residual = 0.000922252, No Iterations 12

Time = 84

smoothSolver:  Solving for Ux, Initial residual = 0.0108018, Final residual = 0.000773564, No Iterations 6
smoothSolver:  Solving for Uy, Initial residual = 0.00585217, Final residual = 0.000450293, No Iterations 6
GAMG:  Solving for p, Initial residual = 0.00614432, Final residual = 0.000382047, No Iterations 3
time step continuity errors : sum local = 0.000844718, global = 3.72763e-05, cumulative = 0.0131346
smoothSolver:  Solving for omega, Initial residual = 0.000707841, Final residual = 4.69802e-05, No Iterations 5
smoothSolver:  Solving for k, Initial residual = 0.010002, Final residual = 0.000771172, No Iterations 6
ExecutionTime = 1.03 s  ClockTime = 1 s

scalarTransport execute: age
smoothSolver:  Solving for age, Initial residual = 0.00932974, Final residual = 0.000910865, No Iterations 12

Time = 85

smoothSolver:  Solving for Ux, Initial residual = 0.0105114, Final residual = 0.000751013, No Iterations 6
smoothSolver:  Solving for Uy, Initial residual = 0.00575857, Final residual = 0.000441207, No Iterations 6
GAMG:  Solving for p, Initial residual = 0.0061057, Final residual = 0.000391187, No Iterations 3
time step continuity errors : sum local = 0.000863226, global = 3.30039e-05, cumulative = 0.0131676
smoothSolver:  Solving for omega, Initial residual = 0.000692596, Final residual = 4.5371e-05, No Iterations 5
smoothSolver:  Solving for k, Initial residual = 0.00973, Final residual = 0.000747523, No Iterations 6
ExecutionTime = 1.05 s  ClockTime = 1 s

scalarTransport execute: age
smoothSolver:  Solving for age, Initial residual = 0.00908902, Final residual = 0.000898665, No Iterations 12

Time = 86

smoothSolver:  Solving for Ux, Initial residual = 0.0102036, Final residual = 0.00072721, No Iterations 6
smoothSolver:  Solving for Uy, Initial residual = 0.00567497, Final residual = 0.000432784, No Iterations 6
GAMG:  Solving for p, Initial residual = 0.00611174, Final residual = 0.000383902, No Iterations 3
time step continuity errors : sum local = 0.000845725, global = 2.76483e-05, cumulative = 0.0131952
smoothSolver:  Solving for omega, Initial residual = 0.000678237, Final residual = 4.38435e-05, No Iterations 5
smoothSolver:  Solving for k, Initial residual = 0.00946417, Final residual = 0.000724294, No Iterations 6
ExecutionTime = 1.06 s  ClockTime = 1 s

scalarTransport execute: age
smoothSolver:  Solving for age, Initial residual = 0.00886019, Final residual = 0.000885043, No Iterations 12

Time = 87

smoothSolver:  Solving for Ux, Initial residual = 0.0099087, Final residual = 0.000703723, No Iterations 6
smoothSolver:  Solving for Uy, Initial residual = 0.0055843, Final residual = 0.00042383, No Iterations 6
GAMG:  Solving for p, Initial residual = 0.00617082, Final residual = 0.000384267, No Iterations 3
time step continuity errors : sum local = 0.00084484, global = 2.40663e-05, cumulative = 0.0132193
smoothSolver:  Solving for omega, Initial residual = 0.000666847, Final residual = 4.23802e-05, No Iterations 5
smoothSolver:  Solving for k, Initial residual = 0.00920364, Final residual = 0.000701394, No Iterations 6
ExecutionTime = 1.07 s  ClockTime = 1 s

scalarTransport execute: age
smoothSolver:  Solving for age, Initial residual = 0.00863012, Final residual = 0.000764396, No Iterations 13

Time = 88

smoothSolver:  Solving for Ux, Initial residual = 0.0096078, Final residual = 0.00067988, No Iterations 6
smoothSolver:  Solving for Uy, Initial residual = 0.00550395, Final residual = 0.000415519, No Iterations 6
GAMG:  Solving for p, Initial residual = 0.00625003, Final residual = 0.000386158, No Iterations 3
time step continuity errors : sum local = 0.000847203, global = 2.008e-05, cumulative = 0.0132394
smoothSolver:  Solving for omega, Initial residual = 0.000657168, Final residual = 4.10094e-05, No Iterations 5
smoothSolver:  Solving for k, Initial residual = 0.00894768, Final residual = 0.000678785, No Iterations 6
ExecutionTime = 1.08 s  ClockTime = 1 s

scalarTransport execute: age
smoothSolver:  Solving for age, Initial residual = 0.00838867, Final residual = 0.000748432, No Iterations 13

Time = 89

smoothSolver:  Solving for Ux, Initial residual = 0.00930784, Final residual = 0.000655572, No Iterations 6
smoothSolver:  Solving for Uy, Initial residual = 0.00542966, Final residual = 0.000407592, No Iterations 6
GAMG:  Solving for p, Initial residual = 0.00636231, Final residual = 0.000396069, No Iterations 3
time step continuity errors : sum local = 0.000866831, global = 1.64287e-05, cumulative = 0.0132558
smoothSolver:  Solving for omega, Initial residual = 0.000650874, Final residual = 6.49291e-05, No Iterations 4
smoothSolver:  Solving for k, Initial residual = 0.00869898, Final residual = 0.000656599, No Iterations 6
ExecutionTime = 1.1 s  ClockTime = 1 s

scalarTransport execute: age
smoothSolver:  Solving for age, Initial residual = 0.0082045, Final residual = 0.000731831, No Iterations 13

Time = 90

smoothSolver:  Solving for Ux, Initial residual = 0.00900002, Final residual = 0.000631193, No Iterations 6
smoothSolver:  Solving for Uy, Initial residual = 0.00536911, Final residual = 0.000400466, No Iterations 6
GAMG:  Solving for p, Initial residual = 0.00637186, Final residual = 0.00040266, No Iterations 3
time step continuity errors : sum local = 0.000877794, global = 1.34892e-05, cumulative = 0.0132693
smoothSolver:  Solving for omega, Initial residual = 0.00065268, Final residual = 6.36463e-05, No Iterations 4
smoothSolver:  Solving for k, Initial residual = 0.00845582, Final residual = 0.00063475, No Iterations 6
ExecutionTime = 1.11 s  ClockTime = 1 s

scalarTransport execute: age
smoothSolver:  Solving for age, Initial residual = 0.00796263, Final residual = 0.000712708, No Iterations 13

Time = 91

smoothSolver:  Solving for Ux, Initial residual = 0.00869038, Final residual = 0.000606725, No Iterations 6
smoothSolver:  Solving for Uy, Initial residual = 0.00531686, Final residual = 0.000393845, No Iterations 6
GAMG:  Solving for p, Initial residual = 0.00634557, Final residual = 0.000403206, No Iterations 3
time step continuity errors : sum local = 0.000875313, global = 1.04176e-05, cumulative = 0.0132797
smoothSolver:  Solving for omega, Initial residual = 0.00065376, Final residual = 6.22379e-05, No Iterations 4
smoothSolver:  Solving for k, Initial residual = 0.00821816, Final residual = 0.000613226, No Iterations 6
ExecutionTime = 1.12 s  ClockTime = 1 s

scalarTransport execute: age
smoothSolver:  Solving for age, Initial residual = 0.00785705, Final residual = 0.000702253, No Iterations 13

Time = 92

smoothSolver:  Solving for Ux, Initial residual = 0.00837988, Final residual = 0.00058243, No Iterations 6
smoothSolver:  Solving for Uy, Initial residual = 0.00527357, Final residual = 0.000388053, No Iterations 6
GAMG:  Solving for p, Initial residual = 0.00634085, Final residual = 0.000402332, No Iterations 3
time step continuity errors : sum local = 0.000869513, global = 7.36957e-06, cumulative = 0.0132871
smoothSolver:  Solving for omega, Initial residual = 0.000656005, Final residual = 6.07442e-05, No Iterations 4
smoothSolver:  Solving for k, Initial residual = 0.00798523, Final residual = 0.000591977, No Iterations 6
ExecutionTime = 1.13 s  ClockTime = 1 s

scalarTransport execute: age
smoothSolver:  Solving for age, Initial residual = 0.00759569, Final residual = 0.000679549, No Iterations 13

Time = 93

smoothSolver:  Solving for Ux, Initial residual = 0.00806148, Final residual = 0.000558056, No Iterations 6
smoothSolver:  Solving for Uy, Initial residual = 0.0052442, Final residual = 0.000383176, No Iterations 6
GAMG:  Solving for p, Initial residual = 0.00629557, Final residual = 0.0003989, No Iterations 3
time step continuity errors : sum local = 0.000857861, global = 3.55501e-06, cumulative = 0.0132906
smoothSolver:  Solving for omega, Initial residual = 0.000654775, Final residual = 5.91548e-05, No Iterations 4
smoothSolver:  Solving for k, Initial residual = 0.00775798, Final residual = 0.000571053, No Iterations 6
ExecutionTime = 1.15 s  ClockTime = 1 s

scalarTransport execute: age
smoothSolver:  Solving for age, Initial residual = 0.00735907, Final residual = 0.000657783, No Iterations 13

Time = 94

smoothSolver:  Solving for Ux, Initial residual = 0.00774105, Final residual = 0.000533593, No Iterations 6
smoothSolver:  Solving for Uy, Initial residual = 0.00522445, Final residual = 0.000378752, No Iterations 6
GAMG:  Solving for p, Initial residual = 0.00624878, Final residual = 0.000394312, No Iterations 3
time step continuity errors : sum local = 0.000843673, global = 7.03057e-07, cumulative = 0.0132913
smoothSolver:  Solving for omega, Initial residual = 0.000654912, Final residual = 5.75834e-05, No Iterations 4
smoothSolver:  Solving for k, Initial residual = 0.00753448, Final residual = 0.0005504, No Iterations 6
ExecutionTime = 1.16 s  ClockTime = 1 s

scalarTransport execute: age
smoothSolver:  Solving for age, Initial residual = 0.00715232, Final residual = 0.000635272, No Iterations 13

Time = 95

smoothSolver:  Solving for Ux, Initial residual = 0.00741635, Final residual = 0.000509613, No Iterations 6
smoothSolver:  Solving for Uy, Initial residual = 0.00520939, Final residual = 0.000374476, No Iterations 6
GAMG:  Solving for p, Initial residual = 0.00619989, Final residual = 0.000388867, No Iterations 3
time step continuity errors : sum local = 0.000827784, global = -1.87764e-06, cumulative = 0.0132894
smoothSolver:  Solving for omega, Initial residual = 0.000654498, Final residual = 5.59595e-05, No Iterations 4
smoothSolver:  Solving for k, Initial residual = 0.00731494, Final residual = 0.000530078, No Iterations 6
ExecutionTime = 1.17 s  ClockTime = 1 s

scalarTransport execute: age
smoothSolver:  Solving for age, Initial residual = 0.00695083, Final residual = 0.000616164, No Iterations 13

Time = 96

smoothSolver:  Solving for Ux, Initial residual = 0.00709891, Final residual = 0.00048551, No Iterations 6
smoothSolver:  Solving for Uy, Initial residual = 0.00519551, Final residual = 0.000370286, No Iterations 6
[...]

Time = 600

smoothSolver:  Solving for Ux, Initial residual = 7.03822e-07, Final residual = 6.24765e-08, No Iterations 5
smoothSolver:  Solving for Uy, Initial residual = 5.97242e-07, Final residual = 5.87668e-08, No Iterations 5
GAMG:  Solving for p, Initial residual = 1.42869e-06, Final residual = 7.20848e-08, No Iterations 3
time step continuity errors : sum local = 1.28708e-07, global = 1.06529e-08, cumulative = 0.0193009
smoothSolver:  Solving for omega, Initial residual = 6.28589e-08, Final residual = 9.94566e-09, No Iterations 3
smoothSolver:  Solving for k, Initial residual = 1.19272e-07, Final residual = 9.13153e-09, No Iterations 5
ExecutionTime = 7.12 s  ClockTime = 7 s

scalarTransport execute: age
smoothSolver:  Solving for age, Initial residual = 0.000321408, Final residual = 2.9872e-05, No Iterations 15

Time = 601

smoothSolver:  Solving for Ux, Initial residual = 6.91816e-07, Final residual = 6.09434e-08, No Iterations 5
smoothSolver:  Solving for Uy, Initial residual = 5.86401e-07, Final residual = 5.79573e-08, No Iterations 5
GAMG:  Solving for p, Initial residual = 1.34287e-06, Final residual = 1.1629e-07, No Iterations 2
time step continuity errors : sum local = 2.07637e-07, global = 1.40448e-08, cumulative = 0.0193009
smoothSolver:  Solving for omega, Initial residual = 6.21728e-08, Final residual = 9.93099e-09, No Iterations 3
smoothSolver:  Solving for k, Initial residual = 1.17546e-07, Final residual = 8.9799e-09, No Iterations 5
ExecutionTime = 7.15 s  ClockTime = 7 s

scalarTransport execute: age
smoothSolver:  Solving for age, Initial residual = 0.000320774, Final residual = 2.98142e-05, No Iterations 15

Time = 602

smoothSolver:  Solving for Ux, Initial residual = 6.83962e-07, Final residual = 6.06935e-08, No Iterations 5
smoothSolver:  Solving for Uy, Initial residual = 5.80312e-07, Final residual = 5.71009e-08, No Iterations 5
GAMG:  Solving for p, Initial residual = 1.3896e-06, Final residual = 7.00678e-08, No Iterations 3
time step continuity errors : sum local = 1.25107e-07, global = 1.03583e-08, cumulative = 0.0193009
smoothSolver:  Solving for omega, Initial residual = 6.25062e-08, Final residual = 9.95751e-09, No Iterations 3
smoothSolver:  Solving for k, Initial residual = 1.16098e-07, Final residual = 8.8893e-09, No Iterations 5
ExecutionTime = 7.16 s  ClockTime = 7 s

scalarTransport execute: age
smoothSolver:  Solving for age, Initial residual = 0.000320137, Final residual = 2.97551e-05, No Iterations 15

Time = 603

smoothSolver:  Solving for Ux, Initial residual = 6.72337e-07, Final residual = 5.92069e-08, No Iterations 5
smoothSolver:  Solving for Uy, Initial residual = 5.69733e-07, Final residual = 5.63081e-08, No Iterations 5
GAMG:  Solving for p, Initial residual = 1.30614e-06, Final residual = 1.13059e-07, No Iterations 2
time step continuity errors : sum local = 2.01869e-07, global = 1.36488e-08, cumulative = 0.0193009
smoothSolver:  Solving for omega, Initial residual = 6.14919e-08, Final residual = 9.88189e-09, No Iterations 3
smoothSolver:  Solving for k, Initial residual = 1.14324e-07, Final residual = 8.73476e-09, No Iterations 5
ExecutionTime = 7.17 s  ClockTime = 7 s

scalarTransport execute: age
smoothSolver:  Solving for age, Initial residual = 0.000319508, Final residual = 2.96975e-05, No Iterations 15

Time = 604

smoothSolver:  Solving for Ux, Initial residual = 6.64699e-07, Final residual = 5.8965e-08, No Iterations 5
smoothSolver:  Solving for Uy, Initial residual = 5.63818e-07, Final residual = 5.54739e-08, No Iterations 5
GAMG:  Solving for p, Initial residual = 1.35163e-06, Final residual = 6.81159e-08, No Iterations 3
time step continuity errors : sum local = 1.21622e-07, global = 1.0069e-08, cumulative = 0.019301
smoothSolver:  Solving for omega, Initial residual = 6.15734e-08, Final residual = 9.86034e-09, No Iterations 3
smoothSolver:  Solving for k, Initial residual = 1.12853e-07, Final residual = 8.64125e-09, No Iterations 5
ExecutionTime = 7.18 s  ClockTime = 7 s

scalarTransport execute: age
smoothSolver:  Solving for age, Initial residual = 0.000318876, Final residual = 2.96388e-05, No Iterations 15

Time = 605

smoothSolver:  Solving for Ux, Initial residual = 6.53398e-07, Final residual = 5.75209e-08, No Iterations 5
smoothSolver:  Solving for Uy, Initial residual = 5.53519e-07, Final residual = 5.47032e-08, No Iterations 5
GAMG:  Solving for p, Initial residual = 1.27046e-06, Final residual = 1.09905e-07, No Iterations 2
time step continuity errors : sum local = 1.96238e-07, global = 1.32668e-08, cumulative = 0.019301
smoothSolver:  Solving for omega, Initial residual = 6.04032e-08, Final residual = 9.74978e-09, No Iterations 3
smoothSolver:  Solving for k, Initial residual = 1.11076e-07, Final residual = 8.48651e-09, No Iterations 5
ExecutionTime = 7.19 s  ClockTime = 7 s

scalarTransport execute: age
smoothSolver:  Solving for age, Initial residual = 0.000318252, Final residual = 2.95816e-05, No Iterations 15

Time = 606

smoothSolver:  Solving for Ux, Initial residual = 6.45953e-07, Final residual = 5.72863e-08, No Iterations 5
smoothSolver:  Solving for Uy, Initial residual = 5.47771e-07, Final residual = 5.38915e-08, No Iterations 5
GAMG:  Solving for p, Initial residual = 1.31474e-06, Final residual = 6.62082e-08, No Iterations 3
time step continuity errors : sum local = 1.18216e-07, global = 9.78525e-09, cumulative = 0.019301
smoothSolver:  Solving for omega, Initial residual = 6.0346e-08, Final residual = 9.69948e-09, No Iterations 3
smoothSolver:  Solving for k, Initial residual = 1.09604e-07, Final residual = 8.39184e-09, No Iterations 5
ExecutionTime = 7.21 s  ClockTime = 7 s

scalarTransport execute: age
smoothSolver:  Solving for age, Initial residual = 0.000317626, Final residual = 2.95233e-05, No Iterations 15

Time = 607

smoothSolver:  Solving for Ux, Initial residual = 6.34946e-07, Final residual = 5.58835e-08, No Iterations 5
smoothSolver:  Solving for Uy, Initial residual = 5.37761e-07, Final residual = 5.31428e-08, No Iterations 5
GAMG:  Solving for p, Initial residual = 1.2358e-06, Final residual = 1.06813e-07, No Iterations 2
time step continuity errors : sum local = 1.90717e-07, global = 1.28965e-08, cumulative = 0.019301
smoothSolver:  Solving for omega, Initial residual = 5.91038e-08, Final residual = 9.56907e-09, No Iterations 3
smoothSolver:  Solving for k, Initial residual = 1.07839e-07, Final residual = 8.23808e-09, No Iterations 5
ExecutionTime = 7.22 s  ClockTime = 7 s

scalarTransport execute: age
smoothSolver:  Solving for age, Initial residual = 0.000317007, Final residual = 2.94665e-05, No Iterations 15

Time = 608

smoothSolver:  Solving for Ux, Initial residual = 6.27692e-07, Final residual = 5.56566e-08, No Iterations 5
smoothSolver:  Solving for Uy, Initial residual = 5.32174e-07, Final residual = 5.23523e-08, No Iterations 5
GAMG:  Solving for p, Initial residual = 1.27878e-06, Final residual = 6.43401e-08, No Iterations 3
time step continuity errors : sum local = 1.14881e-07, global = 9.50932e-09, cumulative = 0.019301
smoothSolver:  Solving for omega, Initial residual = 5.89679e-08, Final residual = 9.50177e-09, No Iterations 3
smoothSolver:  Solving for k, Initial residual = 1.0638e-07, Final residual = 8.14338e-09, No Iterations 5
ExecutionTime = 7.23 s  ClockTime = 7 s

scalarTransport execute: age
smoothSolver:  Solving for age, Initial residual = 0.000316385, Final residual = 2.94086e-05, No Iterations 15

Time = 609

smoothSolver:  Solving for Ux, Initial residual = 6.16974e-07, Final residual = 5.42945e-08, No Iterations 5
smoothSolver:  Solving for Uy, Initial residual = 5.22445e-07, Final residual = 5.16242e-08, No Iterations 5
GAMG:  Solving for p, Initial residual = 1.20199e-06, Final residual = 1.03785e-07, No Iterations 2
time step continuity errors : sum local = 1.85311e-07, global = 1.25377e-08, cumulative = 0.019301
smoothSolver:  Solving for omega, Initial residual = 5.76968e-08, Final residual = 9.36055e-09, No Iterations 3
smoothSolver:  Solving for k, Initial residual = 1.04638e-07, Final residual = 7.99175e-09, No Iterations 5
ExecutionTime = 7.24 s  ClockTime = 7 s

scalarTransport execute: age
smoothSolver:  Solving for age, Initial residual = 0.000315771, Final residual = 2.93522e-05, No Iterations 15

Time = 610

smoothSolver:  Solving for Ux, Initial residual = 6.09911e-07, Final residual = 5.40752e-08, No Iterations 5
smoothSolver:  Solving for Uy, Initial residual = 5.16998e-07, Final residual = 5.08549e-08, No Iterations 5
GAMG:  Solving for p, Initial residual = 1.24378e-06, Final residual = 6.25124e-08, No Iterations 3
time step continuity errors : sum local = 1.11617e-07, global = 9.2412e-09, cumulative = 0.019301
smoothSolver:  Solving for omega, Initial residual = 5.75162e-08, Final residual = 9.28353e-09, No Iterations 3
smoothSolver:  Solving for k, Initial residual = 1.03201e-07, Final residual = 7.89825e-09, No Iterations 5
ExecutionTime = 7.25 s  ClockTime = 7 s

scalarTransport execute: age
smoothSolver:  Solving for age, Initial residual = 0.000315154, Final residual = 2.92947e-05, No Iterations 15

Time = 611

smoothSolver:  Solving for Ux, Initial residual = 5.99488e-07, Final residual = 5.27527e-08, No Iterations 5
smoothSolver:  Solving for Uy, Initial residual = 5.07543e-07, Final residual = 5.01479e-08, No Iterations 5
GAMG:  Solving for p, Initial residual = 1.16918e-06, Final residual = 1.00825e-07, No Iterations 2
time step continuity errors : sum local = 1.80026e-07, global = 1.21878e-08, cumulative = 0.019301
smoothSolver:  Solving for omega, Initial residual = 5.62395e-08, Final residual = 9.13697e-09, No Iterations 3
smoothSolver:  Solving for k, Initial residual = 1.01494e-07, Final residual = 7.74994e-09, No Iterations 5
ExecutionTime = 7.27 s  ClockTime = 7 s

scalarTransport execute: age
smoothSolver:  Solving for age, Initial residual = 0.000314544, Final residual = 2.92386e-05, No Iterations 15

Time = 612

smoothSolver:  Solving for Ux, Initial residual = 5.92634e-07, Final residual = 5.25415e-08, No Iterations 5
smoothSolver:  Solving for Uy, Initial residual = 5.02233e-07, Final residual = 4.94004e-08, No Iterations 5
GAMG:  Solving for p, Initial residual = 1.20953e-06, Final residual = 6.07304e-08, No Iterations 3
time step continuity errors : sum local = 1.08436e-07, global = 8.98072e-09, cumulative = 0.019301
smoothSolver:  Solving for omega, Initial residual = 5.60339e-08, Final residual = 9.05473e-09, No Iterations 3
smoothSolver:  Solving for k, Initial residual = 1.00093e-07, Final residual = 7.65882e-09, No Iterations 5
ExecutionTime = 7.28 s  ClockTime = 7 s

scalarTransport execute: age
smoothSolver:  Solving for age, Initial residual = 0.000313931, Final residual = 2.91815e-05, No Iterations 15

Time = 613

smoothSolver:  Solving for Ux, Initial residual = 5.82514e-07, Final residual = 5.1257e-08, No Iterations 5
smoothSolver:  Solving for Uy, Initial residual = 4.93038e-07, Final residual = 4.87159e-08, No Iterations 5
GAMG:  Solving for p, Initial residual = 1.13703e-06, Final residual = 9.79469e-08, No Iterations 2
time step continuity errors : sum local = 1.74887e-07, global = 1.18454e-08, cumulative = 0.0193011
smoothSolver:  Solving for omega, Initial residual = 5.4766e-08, Final residual = 8.90633e-09, No Iterations 3
smoothSolver:  Solving for k, Initial residual = 9.84348e-08, Final residual = 7.51489e-09, No Iterations 5
ExecutionTime = 7.29 s  ClockTime = 7 s

scalarTransport execute: age
smoothSolver:  Solving for age, Initial residual = 0.000313326, Final residual = 2.91258e-05, No Iterations 15

Time = 614

smoothSolver:  Solving for Ux, Initial residual = 5.75878e-07, Final residual = 5.10538e-08, No Iterations 5
smoothSolver:  Solving for Uy, Initial residual = 4.87925e-07, Final residual = 4.79915e-08, No Iterations 5
GAMG:  Solving for p, Initial residual = 1.17607e-06, Final residual = 5.89996e-08, No Iterations 3
time step continuity errors : sum local = 1.05345e-07, global = 8.72819e-09, cumulative = 0.0193011
smoothSolver:  Solving for omega, Initial residual = 5.45471e-08, Final residual = 8.82169e-09, No Iterations 3
smoothSolver:  Solving for k, Initial residual = 9.70793e-08, Final residual = 7.42709e-09, No Iterations 5
ExecutionTime = 7.3 s  ClockTime = 7 s

scalarTransport execute: age
smoothSolver:  Solving for age, Initial residual = 0.000312717, Final residual = 2.90692e-05, No Iterations 15

Time = 615

smoothSolver:  Solving for Ux, Initial residual = 5.66053e-07, Final residual = 4.98057e-08, No Iterations 5
smoothSolver:  Solving for Uy, Initial residual = 4.79057e-07, Final residual = 4.73309e-08, No Iterations 5
GAMG:  Solving for p, Initial residual = 1.10566e-06, Final residual = 9.5162e-08, No Iterations 2
time step continuity errors : sum local = 1.69914e-07, global = 1.1511e-08, cumulative = 0.0193011
smoothSolver:  Solving for omega, Initial residual = 5.32977e-08, Final residual = 8.67367e-09, No Iterations 3
smoothSolver:  Solving for k, Initial residual = 9.54797e-08, Final residual = 7.28827e-09, No Iterations 5
ExecutionTime = 7.3 s  ClockTime = 7 s

scalarTransport execute: age
smoothSolver:  Solving for age, Initial residual = 0.000312116, Final residual = 2.90138e-05, No Iterations 15

Time = 616

smoothSolver:  Solving for Ux, Initial residual = 5.5963e-07, Final residual = 4.961e-08, No Iterations 5
smoothSolver:  Solving for Uy, Initial residual = 4.74113e-07, Final residual = 4.66302e-08, No Iterations 5
GAMG:  Solving for p, Initial residual = 1.14346e-06, Final residual = 5.73255e-08, No Iterations 3
time step continuity errors : sum local = 1.02356e-07, global = 8.48387e-09, cumulative = 0.0193011
smoothSolver:  Solving for omega, Initial residual = 5.30729e-08, Final residual = 8.58844e-09, No Iterations 3
smoothSolver:  Solving for k, Initial residual = 9.41779e-08, Final residual = 7.20435e-09, No Iterations 5
ExecutionTime = 7.33 s  ClockTime = 7 s

scalarTransport execute: age
smoothSolver:  Solving for age, Initial residual = 0.000311512, Final residual = 2.89576e-05, No Iterations 15

Time = 617

smoothSolver:  Solving for Ux, Initial residual = 5.50097e-07, Final residual = 4.83964e-08, No Iterations 5
smoothSolver:  Solving for Uy, Initial residual = 4.65526e-07, Final residual = 4.59936e-08, No Iterations 5
GAMG:  Solving for p, Initial residual = 1.07513e-06, Final residual = 9.24757e-08, No Iterations 2
time step continuity errors : sum local = 1.65118e-07, global = 1.11862e-08, cumulative = 0.0193011
smoothSolver:  Solving for omega, Initial residual = 5.18483e-08, Final residual = 8.44224e-09, No Iterations 3
smoothSolver:  Solving for k, Initial residual = 9.26423e-08, Final residual = 7.07097e-09, No Iterations 5
ExecutionTime = 7.34 s  ClockTime = 7 s

scalarTransport execute: age
smoothSolver:  Solving for age, Initial residual = 0.000310915, Final residual = 2.89027e-05, No Iterations 15

Time = 618

smoothSolver:  Solving for Ux, Initial residual = 5.43878e-07, Final residual = 4.82075e-08, No Iterations 5
smoothSolver:  Solving for Uy, Initial residual = 4.60769e-07, Final residual = 4.53162e-08, No Iterations 5
GAMG:  Solving for p, Initial residual = 1.11177e-06, Final residual = 5.57098e-08, No Iterations 3
time step continuity errors : sum local = 9.94715e-08, global = 8.2475e-09, cumulative = 0.0193011
smoothSolver:  Solving for omega, Initial residual = 5.16221e-08, Final residual = 8.35765e-09, No Iterations 3
smoothSolver:  Solving for k, Initial residual = 9.13981e-08, Final residual = 6.99112e-09, No Iterations 5
ExecutionTime = 7.35 s  ClockTime = 7 s

scalarTransport execute: age
smoothSolver:  Solving for age, Initial residual = 0.000310316, Final residual = 2.8847e-05, No Iterations 15

Time = 619

smoothSolver:  Solving for Ux, Initial residual = 5.34627e-07, Final residual = 4.70267e-08, No Iterations 5
smoothSolver:  Solving for Uy, Initial residual = 4.52463e-07, Final residual = 4.47022e-08, No Iterations 5
GAMG:  Solving for p, Initial residual = 1.04544e-06, Final residual = 8.98833e-08, No Iterations 2
time step continuity errors : sum local = 1.60489e-07, global = 1.08716e-08, cumulative = 0.0193011
smoothSolver:  Solving for omega, Initial residual = 5.04269e-08, Final residual = 8.21421e-09, No Iterations 3
smoothSolver:  Solving for k, Initial residual = 8.99269e-08, Final residual = 6.86316e-09, No Iterations 5
ExecutionTime = 7.36 s  ClockTime = 7 s

scalarTransport execute: age
smoothSolver:  Solving for age, Initial residual = 0.000309723, Final residual = 2.87925e-05, No Iterations 15

Time = 620

smoothSolver:  Solving for Ux, Initial residual = 5.28596e-07, Final residual = 4.68436e-08, No Iterations 5
smoothSolver:  Solving for Uy, Initial residual = 4.47885e-07, Final residual = 4.40464e-08, No Iterations 5
GAMG:  Solving for p, Initial residual = 1.081e-06, Final residual = 5.41503e-08, No Iterations 3
time step continuity errors : sum local = 9.66869e-08, global = 8.01826e-09, cumulative = 0.0193011
smoothSolver:  Solving for omega, Initial residual = 5.02019e-08, Final residual = 8.13103e-09, No Iterations 3
smoothSolver:  Solving for k, Initial residual = 8.87396e-08, Final residual = 6.7873e-09, No Iterations 5
ExecutionTime = 7.37 s  ClockTime = 7 s

scalarTransport execute: age
smoothSolver:  Solving for age, Initial residual = 0.000309127, Final residual = 2.87372e-05, No Iterations 15

Time = 621

smoothSolver:  Solving for Ux, Initial residual = 5.19603e-07, Final residual = 4.56944e-08, No Iterations 5
smoothSolver:  Solving for Uy, Initial residual = 4.39832e-07, Final residual = 4.3452e-08, No Iterations 5
GAMG:  Solving for p, Initial residual = 1.01656e-06, Final residual = 8.73745e-08, No Iterations 2
time step continuity errors : sum local = 1.5601e-07, global = 1.05669e-08, cumulative = 0.0193011
smoothSolver:  Solving for omega, Initial residual = 4.90387e-08, Final residual = 7.9909e-09, No Iterations 3
smoothSolver:  Solving for k, Initial residual = 8.73295e-08, Final residual = 6.66455e-09, No Iterations 5
ExecutionTime = 7.38 s  ClockTime = 7 s

scalarTransport execute: age
smoothSolver:  Solving for age, Initial residual = 0.000308538, Final residual = 2.86832e-05, No Iterations 15

Time = 622

smoothSolver:  Solving for Ux, Initial residual = 5.1374e-07, Final residual = 4.55163e-08, No Iterations 5
smoothSolver:  Solving for Uy, Initial residual = 4.35401e-07, Final residual = 4.28153e-08, No Iterations 5
GAMG:  Solving for p, Initial residual = 1.05108e-06, Final residual = 5.26404e-08, No Iterations 3
time step continuity errors : sum local = 9.3991e-08, global = 7.79508e-09, cumulative = 0.0193011
smoothSolver:  Solving for omega, Initial residual = 4.88154e-08, Final residual = 7.90956e-09, No Iterations 3
smoothSolver:  Solving for k, Initial residual = 8.61946e-08, Final residual = 6.59238e-09, No Iterations 5
ExecutionTime = 7.4 s  ClockTime = 7 s

scalarTransport execute: age
smoothSolver:  Solving for age, Initial residual = 0.000307946, Final residual = 2.86284e-05, No Iterations 15

Time = 623

smoothSolver:  Solving for Ux, Initial residual = 5.04986e-07, Final residual = 4.43983e-08, No Iterations 5
smoothSolver:  Solving for Uy, Initial residual = 4.27564e-07, Final residual = 4.22369e-08, No Iterations 5
GAMG:  Solving for p, Initial residual = 9.88403e-07, Final residual = 8.49351e-08, No Iterations 2
time step continuity errors : sum local = 1.51654e-07, global = 1.02711e-08, cumulative = 0.0193012
smoothSolver:  Solving for omega, Initial residual = 4.76853e-08, Final residual = 7.77298e-09, No Iterations 3
smoothSolver:  Solving for k, Initial residual = 8.48398e-08, Final residual = 6.47444e-09, No Iterations 5
ExecutionTime = 7.41 s  ClockTime = 7 s


SIMPLE solution converged in 623 iterations

scalarTransport execute: age
smoothSolver:  Solving for age, Initial residual = 0.00030736, Final residual = 2.85748e-05, No Iterations 15

End

