/*---------------------------------------------------------------------------*\
| =========                 |                                                 |
| \\      /  F ield         | OpenFOAM: The Open Source CFD Toolbox           |
|  \\    /   O peration     | Version:  v2012                                 |
|   \\  /    A nd           | Website:  www.openfoam.com                      |
|    \\/     M anipulation  |                                                 |
\*---------------------------------------------------------------------------*/
Build  : _7bdb509494-20201222 OPENFOAM=2012
Arch   : "LSB;label=32;scalar=64"
Exec   : simpleFoam
Date   : Feb 23 2023
Time   : 01:55:37
Host   : johnsDesktop
PID    : 18048
I/O    : uncollated
Case   : /home/john/of_runs/cases/0_52_3-00640_9
nProcs : 1
trapFpe: Floating point exception trapping enabled (FOAM_SIGFPE).
fileModificationChecking : Monitoring run-time modified files using timeStampMaster (fileModificationSkew 5, maxFileModificationPolls 20)
allowSystemOperations : Allowing user-supplied system call operations

// * * * * * * * * * * * * * * * * * * * * * * * * * * * * * * * * * * * * * //
Create time

Create mesh for time = 0


SIMPLE: convergence criteria
    field p	 tolerance 1e-06
    field U	 tolerance 1e-06
    field "(k|epsilon|omega|f|v2|age)"	 tolerance 1e-05

Reading field p

Reading field U

Reading/calculating face flux field phi

Selecting incompressible transport model Newtonian
Selecting turbulence model type RAS
Selecting RAS turbulence model kOmegaSST
Selecting patchDistMethod meshWave
RAS
{
    RASModel        kOmegaSST;
    turbulence      on;
    printCoeffs     on;
    alphaK1         0.85;
    alphaK2         1;
    alphaOmega1     0.5;
    alphaOmega2     0.856;
    gamma1          0.555556;
    gamma2          0.44;
    beta1           0.075;
    beta2           0.0828;
    betaStar        0.09;
    a1              0.31;
    b1              1;
    c1              10;
    F3              false;
    decayControl    false;
    kInf            0;
    omegaInf        0;
}

No MRF models present

No finite volume options present

Starting time loop

Selecting finite volume options type scalarSemiImplicitSource
    Source: unitySource
    - selecting all cells
    - selected 6057 cell(s) with volume 0.03174
Time = 1

smoothSolver:  Solving for Ux, Initial residual = 0, Final residual = 0, No Iterations 0
smoothSolver:  Solving for Uy, Initial residual = 1, Final residual = 0.0862618, No Iterations 2
GAMG:  Solving for p, Initial residual = 1, Final residual = 0.0543631, No Iterations 16
time step continuity errors : sum local = 0.00342553, global = -0.000444561, cumulative = -0.000444561
smoothSolver:  Solving for omega, Initial residual = 0.276302, Final residual = 0.0117778, No Iterations 3
smoothSolver:  Solving for k, Initial residual = 1, Final residual = 0.0786095, No Iterations 3
ExecutionTime = 0.05 s  ClockTime = 0 s

scalarTransport execute: age
smoothSolver:  Solving for age, Initial residual = 1, Final residual = 0.0898078, No Iterations 5

Time = 2

smoothSolver:  Solving for Ux, Initial residual = 0.53459, Final residual = 0.0453123, No Iterations 6
smoothSolver:  Solving for Uy, Initial residual = 0.274765, Final residual = 0.0199642, No Iterations 6
GAMG:  Solving for p, Initial residual = 0.0508455, Final residual = 0.00438182, No Iterations 4
time step continuity errors : sum local = 0.051317, global = 0.00439549, cumulative = 0.00395093
smoothSolver:  Solving for omega, Initial residual = 0.252237, Final residual = 0.0240528, No Iterations 3
smoothSolver:  Solving for k, Initial residual = 0.602079, Final residual = 0.0561558, No Iterations 4
ExecutionTime = 0.08 s  ClockTime = 0 s

scalarTransport execute: age
smoothSolver:  Solving for age, Initial residual = 0.582174, Final residual = 0.0578808, No Iterations 5

Time = 3

smoothSolver:  Solving for Ux, Initial residual = 0.23408, Final residual = 0.0176923, No Iterations 6
smoothSolver:  Solving for Uy, Initial residual = 0.0994409, Final residual = 0.00942649, No Iterations 5
GAMG:  Solving for p, Initial residual = 0.0576883, Final residual = 0.00446303, No Iterations 7
time step continuity errors : sum local = 0.0256142, global = 0.00211431, cumulative = 0.00606524
smoothSolver:  Solving for omega, Initial residual = 0.238589, Final residual = 0.0228662, No Iterations 4
smoothSolver:  Solving for k, Initial residual = 0.506817, Final residual = 0.0379302, No Iterations 5
ExecutionTime = 0.09 s  ClockTime = 0 s

scalarTransport execute: age
smoothSolver:  Solving for age, Initial residual = 0.418972, Final residual = 0.0393105, No Iterations 11

Time = 4

smoothSolver:  Solving for Ux, Initial residual = 0.112879, Final residual = 0.00901759, No Iterations 4
smoothSolver:  Solving for Uy, Initial residual = 0.0599075, Final residual = 0.00447033, No Iterations 5
GAMG:  Solving for p, Initial residual = 0.0954417, Final residual = 0.00625232, No Iterations 3
time step continuity errors : sum local = 0.0168651, global = 0.00125987, cumulative = 0.00732511
smoothSolver:  Solving for omega, Initial residual = 0.138506, Final residual = 0.00948975, No Iterations 5
smoothSolver:  Solving for k, Initial residual = 0.436145, Final residual = 0.0369728, No Iterations 5
ExecutionTime = 0.1 s  ClockTime = 0 s

scalarTransport execute: age
smoothSolver:  Solving for age, Initial residual = 0.260484, Final residual = 0.0222178, No Iterations 3

Time = 5

smoothSolver:  Solving for Ux, Initial residual = 0.0783042, Final residual = 0.00734872, No Iterations 5
smoothSolver:  Solving for Uy, Initial residual = 0.0332086, Final residual = 0.00244451, No Iterations 5
GAMG:  Solving for p, Initial residual = 0.084201, Final residual = 0.00412484, No Iterations 2
time step continuity errors : sum local = 0.00974042, global = 0.000948274, cumulative = 0.00827338
smoothSolver:  Solving for omega, Initial residual = 0.0959994, Final residual = 0.00727127, No Iterations 5
smoothSolver:  Solving for k, Initial residual = 0.341909, Final residual = 0.0313881, No Iterations 5
ExecutionTime = 0.11 s  ClockTime = 0 s

scalarTransport execute: age
smoothSolver:  Solving for age, Initial residual = 0.212433, Final residual = 0.0177402, No Iterations 3

Time = 6

smoothSolver:  Solving for Ux, Initial residual = 0.0603257, Final residual = 0.00450589, No Iterations 6
smoothSolver:  Solving for Uy, Initial residual = 0.0267486, Final residual = 0.00222448, No Iterations 5
GAMG:  Solving for p, Initial residual = 0.0673547, Final residual = 0.00462451, No Iterations 2
time step continuity errors : sum local = 0.0108016, global = 4.93816e-05, cumulative = 0.00832276
smoothSolver:  Solving for omega, Initial residual = 0.0744448, Final residual = 0.00606273, No Iterations 5
smoothSolver:  Solving for k, Initial residual = 0.273383, Final residual = 0.0266714, No Iterations 5
ExecutionTime = 0.12 s  ClockTime = 0 s

scalarTransport execute: age
smoothSolver:  Solving for age, Initial residual = 0.176732, Final residual = 0.0170495, No Iterations 3

Time = 7

smoothSolver:  Solving for Ux, Initial residual = 0.0521023, Final residual = 0.00395869, No Iterations 6
smoothSolver:  Solving for Uy, Initial residual = 0.0222707, Final residual = 0.00197579, No Iterations 5
GAMG:  Solving for p, Initial residual = 0.0540884, Final residual = 0.00407752, No Iterations 3
time step continuity errors : sum local = 0.00964145, global = -0.000347931, cumulative = 0.00797483
smoothSolver:  Solving for omega, Initial residual = 0.0560293, Final residual = 0.00489177, No Iterations 5
smoothSolver:  Solving for k, Initial residual = 0.226449, Final residual = 0.0146223, No Iterations 6
ExecutionTime = 0.13 s  ClockTime = 0 s

scalarTransport execute: age
smoothSolver:  Solving for age, Initial residual = 0.146396, Final residual = 0.0129673, No Iterations 3

Time = 8

smoothSolver:  Solving for Ux, Initial residual = 0.0351636, Final residual = 0.00315501, No Iterations 5
smoothSolver:  Solving for Uy, Initial residual = 0.020618, Final residual = 0.00194879, No Iterations 5
GAMG:  Solving for p, Initial residual = 0.0420888, Final residual = 0.00377398, No Iterations 2
time step continuity errors : sum local = 0.00989949, global = -0.000542792, cumulative = 0.00743204
smoothSolver:  Solving for omega, Initial residual = 0.0454702, Final residual = 0.00410024, No Iterations 5
smoothSolver:  Solving for k, Initial residual = 0.193028, Final residual = 0.0129303, No Iterations 6
ExecutionTime = 0.15 s  ClockTime = 0 s

scalarTransport execute: age
smoothSolver:  Solving for age, Initial residual = 0.128155, Final residual = 0.0101073, No Iterations 4

Time = 9

smoothSolver:  Solving for Ux, Initial residual = 0.029208, Final residual = 0.0028516, No Iterations 5
smoothSolver:  Solving for Uy, Initial residual = 0.0196043, Final residual = 0.00183304, No Iterations 5
GAMG:  Solving for p, Initial residual = 0.0345893, Final residual = 0.00271768, No Iterations 2
time step continuity errors : sum local = 0.00754852, global = -0.000676833, cumulative = 0.00675521
smoothSolver:  Solving for omega, Initial residual = 0.0373096, Final residual = 0.0034725, No Iterations 5
smoothSolver:  Solving for k, Initial residual = 0.167593, Final residual = 0.0115632, No Iterations 6
ExecutionTime = 0.16 s  ClockTime = 0 s

scalarTransport execute: age
smoothSolver:  Solving for age, Initial residual = 0.108089, Final residual = 0.0107885, No Iterations 3

Time = 10

smoothSolver:  Solving for Ux, Initial residual = 0.0276504, Final residual = 0.00182965, No Iterations 6
smoothSolver:  Solving for Uy, Initial residual = 0.0175107, Final residual = 0.00164832, No Iterations 5
GAMG:  Solving for p, Initial residual = 0.0287499, Final residual = 0.00133569, No Iterations 2
time step continuity errors : sum local = 0.00385968, global = -0.000523581, cumulative = 0.00623163
smoothSolver:  Solving for omega, Initial residual = 0.0312476, Final residual = 0.00298057, No Iterations 5
smoothSolver:  Solving for k, Initial residual = 0.147655, Final residual = 0.0104471, No Iterations 6
ExecutionTime = 0.17 s  ClockTime = 0 s

scalarTransport execute: age
smoothSolver:  Solving for age, Initial residual = 0.0914874, Final residual = 0.00795692, No Iterations 3

Time = 11

smoothSolver:  Solving for Ux, Initial residual = 0.0261633, Final residual = 0.00178569, No Iterations 6
smoothSolver:  Solving for Uy, Initial residual = 0.0166177, Final residual = 0.00165007, No Iterations 5
GAMG:  Solving for p, Initial residual = 0.0249196, Final residual = 0.000915219, No Iterations 2
time step continuity errors : sum local = 0.00269613, global = -0.000382798, cumulative = 0.00584883
smoothSolver:  Solving for omega, Initial residual = 0.0262114, Final residual = 0.00256142, No Iterations 5
smoothSolver:  Solving for k, Initial residual = 0.131862, Final residual = 0.00951555, No Iterations 6
ExecutionTime = 0.18 s  ClockTime = 0 s

scalarTransport execute: age
smoothSolver:  Solving for age, Initial residual = 0.0784855, Final residual = 0.00687517, No Iterations 3

Time = 12

smoothSolver:  Solving for Ux, Initial residual = 0.0248976, Final residual = 0.00172254, No Iterations 6
smoothSolver:  Solving for Uy, Initial residual = 0.0161866, Final residual = 0.00110583, No Iterations 6
GAMG:  Solving for p, Initial residual = 0.0225079, Final residual = 0.000931287, No Iterations 2
time step continuity errors : sum local = 0.00276007, global = -0.000279823, cumulative = 0.005569
smoothSolver:  Solving for omega, Initial residual = 0.0224447, Final residual = 0.00222489, No Iterations 5
smoothSolver:  Solving for k, Initial residual = 0.118922, Final residual = 0.00872511, No Iterations 6
ExecutionTime = 0.19 s  ClockTime = 0 s

scalarTransport execute: age
smoothSolver:  Solving for age, Initial residual = 0.0685224, Final residual = 0.00602857, No Iterations 3

Time = 13

smoothSolver:  Solving for Ux, Initial residual = 0.0239884, Final residual = 0.00168173, No Iterations 6
smoothSolver:  Solving for Uy, Initial residual = 0.015692, Final residual = 0.0011007, No Iterations 6
GAMG:  Solving for p, Initial residual = 0.0209287, Final residual = 0.000960669, No Iterations 2
time step continuity errors : sum local = 0.00286337, global = -0.000171716, cumulative = 0.00539729
smoothSolver:  Solving for omega, Initial residual = 0.0193685, Final residual = 0.00124364, No Iterations 6
smoothSolver:  Solving for k, Initial residual = 0.107884, Final residual = 0.00802979, No Iterations 6
ExecutionTime = 0.2 s  ClockTime = 0 s

scalarTransport execute: age
smoothSolver:  Solving for age, Initial residual = 0.061084, Final residual = 0.00560307, No Iterations 3

Time = 14

smoothSolver:  Solving for Ux, Initial residual = 0.0231893, Final residual = 0.00164114, No Iterations 6
smoothSolver:  Solving for Uy, Initial residual = 0.0154381, Final residual = 0.00110084, No Iterations 6
GAMG:  Solving for p, Initial residual = 0.0197619, Final residual = 0.000945839, No Iterations 2
time step continuity errors : sum local = 0.00282793, global = -6.87908e-05, cumulative = 0.0053285
smoothSolver:  Solving for omega, Initial residual = 0.0167074, Final residual = 0.00108747, No Iterations 6
smoothSolver:  Solving for k, Initial residual = 0.0984212, Final residual = 0.00741881, No Iterations 6
ExecutionTime = 0.21 s  ClockTime = 0 s

scalarTransport execute: age
smoothSolver:  Solving for age, Initial residual = 0.0555272, Final residual = 0.00536047, No Iterations 3

Time = 15

smoothSolver:  Solving for Ux, Initial residual = 0.022483, Final residual = 0.0015999, No Iterations 6
smoothSolver:  Solving for Uy, Initial residual = 0.0152494, Final residual = 0.0011011, No Iterations 6
GAMG:  Solving for p, Initial residual = 0.01887, Final residual = 0.000917608, No Iterations 2
time step continuity errors : sum local = 0.00274426, global = 3.58874e-05, cumulative = 0.00536439
smoothSolver:  Solving for omega, Initial residual = 0.014551, Final residual = 0.000957342, No Iterations 6
smoothSolver:  Solving for k, Initial residual = 0.0903961, Final residual = 0.00688671, No Iterations 6
ExecutionTime = 0.22 s  ClockTime = 0 s

scalarTransport execute: age
smoothSolver:  Solving for age, Initial residual = 0.0509821, Final residual = 0.00493701, No Iterations 3

Time = 16

smoothSolver:  Solving for Ux, Initial residual = 0.0217734, Final residual = 0.00155608, No Iterations 6
smoothSolver:  Solving for Uy, Initial residual = 0.0151564, Final residual = 0.00110241, No Iterations 6
GAMG:  Solving for p, Initial residual = 0.0180199, Final residual = 0.000887454, No Iterations 2
time step continuity errors : sum local = 0.00264827, global = 0.000122959, cumulative = 0.00548734
smoothSolver:  Solving for omega, Initial residual = 0.0128096, Final residual = 0.000848485, No Iterations 6
smoothSolver:  Solving for k, Initial residual = 0.0835014, Final residual = 0.00641878, No Iterations 6
ExecutionTime = 0.23 s  ClockTime = 0 s

scalarTransport execute: age
smoothSolver:  Solving for age, Initial residual = 0.0466885, Final residual = 0.00463899, No Iterations 3

Time = 17

smoothSolver:  Solving for Ux, Initial residual = 0.0210458, Final residual = 0.00151167, No Iterations 6
smoothSolver:  Solving for Uy, Initial residual = 0.0150544, Final residual = 0.00110127, No Iterations 6
GAMG:  Solving for p, Initial residual = 0.0172966, Final residual = 0.000858349, No Iterations 2
time step continuity errors : sum local = 0.00255184, global = 0.000188897, cumulative = 0.00567624
smoothSolver:  Solving for omega, Initial residual = 0.0113692, Final residual = 0.000756745, No Iterations 6
smoothSolver:  Solving for k, Initial residual = 0.0775244, Final residual = 0.00600522, No Iterations 6
ExecutionTime = 0.25 s  ClockTime = 0 s

scalarTransport execute: age
smoothSolver:  Solving for age, Initial residual = 0.0430959, Final residual = 0.00360147, No Iterations 4

Time = 18

smoothSolver:  Solving for Ux, Initial residual = 0.0203478, Final residual = 0.00146718, No Iterations 6
smoothSolver:  Solving for Uy, Initial residual = 0.0149665, Final residual = 0.0010975, No Iterations 6
GAMG:  Solving for p, Initial residual = 0.0166967, Final residual = 0.000843278, No Iterations 2
time step continuity errors : sum local = 0.00249061, global = 0.000227804, cumulative = 0.00590405
smoothSolver:  Solving for omega, Initial residual = 0.0101665, Final residual = 0.000678754, No Iterations 6
smoothSolver:  Solving for k, Initial residual = 0.0722914, Final residual = 0.00563664, No Iterations 6
ExecutionTime = 0.26 s  ClockTime = 0 s

scalarTransport execute: age
smoothSolver:  Solving for age, Initial residual = 0.0394851, Final residual = 0.00360517, No Iterations 4

Time = 19

smoothSolver:  Solving for Ux, Initial residual = 0.0197065, Final residual = 0.00142538, No Iterations 6
smoothSolver:  Solving for Uy, Initial residual = 0.0148464, Final residual = 0.00109275, No Iterations 6
GAMG:  Solving for p, Initial residual = 0.0162302, Final residual = 0.000839427, No Iterations 2
time step continuity errors : sum local = 0.00245531, global = 0.000248865, cumulative = 0.00615291
smoothSolver:  Solving for omega, Initial residual = 0.00915102, Final residual = 0.000612111, No Iterations 6
smoothSolver:  Solving for k, Initial residual = 0.067667, Final residual = 0.00530571, No Iterations 6
ExecutionTime = 0.27 s  ClockTime = 0 s

scalarTransport execute: age
smoothSolver:  Solving for age, Initial residual = 0.0359075, Final residual = 0.00340136, No Iterations 4

Time = 20

smoothSolver:  Solving for Ux, Initial residual = 0.0191376, Final residual = 0.00138797, No Iterations 6
smoothSolver:  Solving for Uy, Initial residual = 0.014725, Final residual = 0.00108895, No Iterations 6
GAMG:  Solving for p, Initial residual = 0.0157606, Final residual = 0.000836637, No Iterations 2
time step continuity errors : sum local = 0.00242114, global = 0.000254586, cumulative = 0.0064075
smoothSolver:  Solving for omega, Initial residual = 0.00827193, Final residual = 0.000554694, No Iterations 6
smoothSolver:  Solving for k, Initial residual = 0.0635605, Final residual = 0.00500763, No Iterations 6
ExecutionTime = 0.28 s  ClockTime = 0 s

scalarTransport execute: age
smoothSolver:  Solving for age, Initial residual = 0.0324978, Final residual = 0.00318105, No Iterations 4

Time = 21

smoothSolver:  Solving for Ux, Initial residual = 0.0186496, Final residual = 0.00135675, No Iterations 6
smoothSolver:  Solving for Uy, Initial residual = 0.0145649, Final residual = 0.00108313, No Iterations 6
GAMG:  Solving for p, Initial residual = 0.0152285, Final residual = 0.000838894, No Iterations 2
time step continuity errors : sum local = 0.00240417, global = 0.000249573, cumulative = 0.00665707
smoothSolver:  Solving for omega, Initial residual = 0.00751902, Final residual = 0.000504749, No Iterations 6
smoothSolver:  Solving for k, Initial residual = 0.0598809, Final residual = 0.0047372, No Iterations 6
ExecutionTime = 0.29 s  ClockTime = 0 s

scalarTransport execute: age
smoothSolver:  Solving for age, Initial residual = 0.0290588, Final residual = 0.00249874, No Iterations 5

Time = 22

smoothSolver:  Solving for Ux, Initial residual = 0.018242, Final residual = 0.00133084, No Iterations 6
smoothSolver:  Solving for Uy, Initial residual = 0.0143922, Final residual = 0.0010748, No Iterations 6
GAMG:  Solving for p, Initial residual = 0.014636, Final residual = 0.000843927, No Iterations 2
time step continuity errors : sum local = 0.00239955, global = 0.000237026, cumulative = 0.0068941
smoothSolver:  Solving for omega, Initial residual = 0.00686452, Final residual = 0.000461018, No Iterations 6
smoothSolver:  Solving for k, Initial residual = 0.056565, Final residual = 0.00449088, No Iterations 6
ExecutionTime = 0.3 s  ClockTime = 0 s

scalarTransport execute: age
smoothSolver:  Solving for age, Initial residual = 0.0262767, Final residual = 0.00233843, No Iterations 5

Time = 23

smoothSolver:  Solving for Ux, Initial residual = 0.0178782, Final residual = 0.00130908, No Iterations 6
smoothSolver:  Solving for Uy, Initial residual = 0.0141793, Final residual = 0.0010639, No Iterations 6
GAMG:  Solving for p, Initial residual = 0.0140004, Final residual = 0.000848233, No Iterations 2
time step continuity errors : sum local = 0.00239484, global = 0.00022057, cumulative = 0.00711467
smoothSolver:  Solving for omega, Initial residual = 0.00629283, Final residual = 0.000422454, No Iterations 6
smoothSolver:  Solving for k, Initial residual = 0.0535586, Final residual = 0.00426536, No Iterations 6
ExecutionTime = 0.32 s  ClockTime = 0 s

scalarTransport execute: age
smoothSolver:  Solving for age, Initial residual = 0.0242845, Final residual = 0.00223814, No Iterations 5

Time = 24

smoothSolver:  Solving for Ux, Initial residual = 0.017551, Final residual = 0.00129061, No Iterations 6
smoothSolver:  Solving for Uy, Initial residual = 0.0139636, Final residual = 0.00105084, No Iterations 6
GAMG:  Solving for p, Initial residual = 0.0134176, Final residual = 0.000850761, No Iterations 2
time step continuity errors : sum local = 0.00238611, global = 0.000202916, cumulative = 0.00731758
smoothSolver:  Solving for omega, Initial residual = 0.00578884, Final residual = 0.00038837, No Iterations 6
smoothSolver:  Solving for k, Initial residual = 0.0508213, Final residual = 0.00405817, No Iterations 6
ExecutionTime = 0.33 s  ClockTime = 0 s

scalarTransport execute: age
smoothSolver:  Solving for age, Initial residual = 0.0230019, Final residual = 0.00219463, No Iterations 5

Time = 25

smoothSolver:  Solving for Ux, Initial residual = 0.0172629, Final residual = 0.00127466, No Iterations 6
smoothSolver:  Solving for Uy, Initial residual = 0.0137587, Final residual = 0.00103641, No Iterations 6
GAMG:  Solving for p, Initial residual = 0.0128978, Final residual = 0.000847291, No Iterations 2
time step continuity errors : sum local = 0.00236301, global = 0.000186353, cumulative = 0.00750393
smoothSolver:  Solving for omega, Initial residual = 0.00534173, Final residual = 0.00035828, No Iterations 6
smoothSolver:  Solving for k, Initial residual = 0.0483115, Final residual = 0.00386669, No Iterations 6
ExecutionTime = 0.34 s  ClockTime = 0 s

scalarTransport execute: age
smoothSolver:  Solving for age, Initial residual = 0.0220375, Final residual = 0.00177719, No Iterations 6

Time = 26

smoothSolver:  Solving for Ux, Initial residual = 0.0169992, Final residual = 0.00126227, No Iterations 6
smoothSolver:  Solving for Uy, Initial residual = 0.0135644, Final residual = 0.00102062, No Iterations 6
GAMG:  Solving for p, Initial residual = 0.0126764, Final residual = 0.000840576, No Iterations 2
time step continuity errors : sum local = 0.0023306, global = 0.000171715, cumulative = 0.00767565
smoothSolver:  Solving for omega, Initial residual = 0.00495057, Final residual = 0.000331745, No Iterations 6
smoothSolver:  Solving for k, Initial residual = 0.0459988, Final residual = 0.00368895, No Iterations 6
ExecutionTime = 0.35 s  ClockTime = 0 s

scalarTransport execute: age
smoothSolver:  Solving for age, Initial residual = 0.0209553, Final residual = 0.00183008, No Iterations 6

Time = 27

smoothSolver:  Solving for Ux, Initial residual = 0.0167683, Final residual = 0.00125285, No Iterations 6
smoothSolver:  Solving for Uy, Initial residual = 0.0133858, Final residual = 0.00100407, No Iterations 6
GAMG:  Solving for p, Initial residual = 0.0128328, Final residual = 0.000838639, No Iterations 2
time step continuity errors : sum local = 0.00231393, global = 0.000160722, cumulative = 0.00783637
smoothSolver:  Solving for omega, Initial residual = 0.00460466, Final residual = 0.000308087, No Iterations 6
smoothSolver:  Solving for k, Initial residual = 0.0438641, Final residual = 0.00352374, No Iterations 6
ExecutionTime = 0.36 s  ClockTime = 0 s

scalarTransport execute: age
smoothSolver:  Solving for age, Initial residual = 0.0198142, Final residual = 0.00188014, No Iterations 6

Time = 28

smoothSolver:  Solving for Ux, Initial residual = 0.0165975, Final residual = 0.00124615, No Iterations 6
smoothSolver:  Solving for Uy, Initial residual = 0.0132048, Final residual = 0.000985961, No Iterations 6
GAMG:  Solving for p, Initial residual = 0.0131234, Final residual = 0.000848265, No Iterations 2
time step continuity errors : sum local = 0.00233132, global = 0.00015551, cumulative = 0.00799188
smoothSolver:  Solving for omega, Initial residual = 0.0042988, Final residual = 0.000286738, No Iterations 6
smoothSolver:  Solving for k, Initial residual = 0.0418765, Final residual = 0.00336891, No Iterations 6
ExecutionTime = 0.38 s  ClockTime = 0 s

scalarTransport execute: age
smoothSolver:  Solving for age, Initial residual = 0.0188581, Final residual = 0.00165959, No Iterations 7

Time = 29

smoothSolver:  Solving for Ux, Initial residual = 0.0164772, Final residual = 0.00124169, No Iterations 6
smoothSolver:  Solving for Uy, Initial residual = 0.0129934, Final residual = 0.000967208, No Iterations 6
GAMG:  Solving for p, Initial residual = 0.0132694, Final residual = 0.000888947, No Iterations 2
time step continuity errors : sum local = 0.00242583, global = 0.000153419, cumulative = 0.0081453
smoothSolver:  Solving for omega, Initial residual = 0.00402238, Final residual = 0.000267353, No Iterations 6
smoothSolver:  Solving for k, Initial residual = 0.0400191, Final residual = 0.00322357, No Iterations 6
ExecutionTime = 0.39 s  ClockTime = 0 s

scalarTransport execute: age
smoothSolver:  Solving for age, Initial residual = 0.0178585, Final residual = 0.00175534, No Iterations 7

Time = 30

smoothSolver:  Solving for Ux, Initial residual = 0.0163809, Final residual = 0.0012367, No Iterations 6
smoothSolver:  Solving for Uy, Initial residual = 0.0127454, Final residual = 0.000946909, No Iterations 6
GAMG:  Solving for p, Initial residual = 0.013245, Final residual = 0.00093261, No Iterations 2
time step continuity errors : sum local = 0.00252966, global = 0.000152695, cumulative = 0.008298
smoothSolver:  Solving for omega, Initial residual = 0.00377409, Final residual = 0.000249712, No Iterations 6
smoothSolver:  Solving for k, Initial residual = 0.0382862, Final residual = 0.00308705, No Iterations 6
ExecutionTime = 0.4 s  ClockTime = 0 s

scalarTransport execute: age
smoothSolver:  Solving for age, Initial residual = 0.0171755, Final residual = 0.00155702, No Iterations 8

Time = 31

smoothSolver:  Solving for Ux, Initial residual = 0.0162908, Final residual = 0.00123131, No Iterations 6
smoothSolver:  Solving for Uy, Initial residual = 0.0124522, Final residual = 0.000924461, No Iterations 6
GAMG:  Solving for p, Initial residual = 0.0129416, Final residual = 0.000961012, No Iterations 2
time step continuity errors : sum local = 0.00259288, global = 0.000150968, cumulative = 0.00844896
smoothSolver:  Solving for omega, Initial residual = 0.00354578, Final residual = 0.000233583, No Iterations 6
smoothSolver:  Solving for k, Initial residual = 0.0366594, Final residual = 0.00295836, No Iterations 6
ExecutionTime = 0.41 s  ClockTime = 0 s

scalarTransport execute: age
smoothSolver:  Solving for age, Initial residual = 0.016708, Final residual = 0.00163794, No Iterations 8

Time = 32

smoothSolver:  Solving for Ux, Initial residual = 0.0161976, Final residual = 0.001224, No Iterations 6
smoothSolver:  Solving for Uy, Initial residual = 0.0121202, Final residual = 0.000900576, No Iterations 6
GAMG:  Solving for p, Initial residual = 0.0124006, Final residual = 0.000980085, No Iterations 2
time step continuity errors : sum local = 0.00263201, global = 0.000145798, cumulative = 0.00859476
smoothSolver:  Solving for omega, Initial residual = 0.00333979, Final residual = 0.000218791, No Iterations 6
smoothSolver:  Solving for k, Initial residual = 0.0351314, Final residual = 0.00283729, No Iterations 6
ExecutionTime = 0.43 s  ClockTime = 0 s

scalarTransport execute: age
smoothSolver:  Solving for age, Initial residual = 0.0165045, Final residual = 0.00151502, No Iterations 9

Time = 33

smoothSolver:  Solving for Ux, Initial residual = 0.0160768, Final residual = 0.00121507, No Iterations 6
smoothSolver:  Solving for Uy, Initial residual = 0.0117672, Final residual = 0.000876588, No Iterations 6
GAMG:  Solving for p, Initial residual = 0.0117804, Final residual = 0.000996943, No Iterations 2
time step continuity errors : sum local = 0.00266655, global = 0.000136303, cumulative = 0.00873107
smoothSolver:  Solving for omega, Initial residual = 0.00315211, Final residual = 0.000205164, No Iterations 6
smoothSolver:  Solving for k, Initial residual = 0.0336945, Final residual = 0.00272357, No Iterations 6
ExecutionTime = 0.44 s  ClockTime = 0 s

scalarTransport execute: age
smoothSolver:  Solving for age, Initial residual = 0.0164843, Final residual = 0.00158613, No Iterations 9

Time = 34

smoothSolver:  Solving for Ux, Initial residual = 0.0159359, Final residual = 0.00120396, No Iterations 6
smoothSolver:  Solving for Uy, Initial residual = 0.0114106, Final residual = 0.000853905, No Iterations 6
GAMG:  Solving for p, Initial residual = 0.0112864, Final residual = 0.00101815, No Iterations 2
time step continuity errors : sum local = 0.002713, global = 0.000124756, cumulative = 0.00885582
smoothSolver:  Solving for omega, Initial residual = 0.00297754, Final residual = 0.000192605, No Iterations 6
smoothSolver:  Solving for k, Initial residual = 0.032346, Final residual = 0.00261722, No Iterations 6
ExecutionTime = 0.45 s  ClockTime = 1 s

scalarTransport execute: age
smoothSolver:  Solving for age, Initial residual = 0.0166409, Final residual = 0.00144417, No Iterations 10

Time = 35

smoothSolver:  Solving for Ux, Initial residual = 0.0157896, Final residual = 0.00119274, No Iterations 6
smoothSolver:  Solving for Uy, Initial residual = 0.011093, Final residual = 0.000833551, No Iterations 6
GAMG:  Solving for p, Initial residual = 0.0108842, Final residual = 0.00105231, No Iterations 2
time step continuity errors : sum local = 0.00279034, global = 0.000114867, cumulative = 0.00897069
smoothSolver:  Solving for omega, Initial residual = 0.00281543, Final residual = 0.000280065, No Iterations 5
smoothSolver:  Solving for k, Initial residual = 0.0311051, Final residual = 0.00251947, No Iterations 6
ExecutionTime = 0.46 s  ClockTime = 1 s

scalarTransport execute: age
smoothSolver:  Solving for age, Initial residual = 0.017047, Final residual = 0.00152647, No Iterations 10

Time = 36

smoothSolver:  Solving for Ux, Initial residual = 0.0156716, Final residual = 0.00118168, No Iterations 6
smoothSolver:  Solving for Uy, Initial residual = 0.0108179, Final residual = 0.000814913, No Iterations 6
GAMG:  Solving for p, Initial residual = 0.0105974, Final residual = 0.000903656, No Iterations 3
time step continuity errors : sum local = 0.00238147, global = 6.58568e-05, cumulative = 0.00903655
smoothSolver:  Solving for omega, Initial residual = 0.00270658, Final residual = 0.000265621, No Iterations 5
smoothSolver:  Solving for k, Initial residual = 0.0299531, Final residual = 0.00242908, No Iterations 6
ExecutionTime = 0.47 s  ClockTime = 1 s

scalarTransport execute: age
smoothSolver:  Solving for age, Initial residual = 0.0176189, Final residual = 0.001651, No Iterations 10

Time = 37

smoothSolver:  Solving for Ux, Initial residual = 0.0157784, Final residual = 0.00118334, No Iterations 6
smoothSolver:  Solving for Uy, Initial residual = 0.010699, Final residual = 0.000803831, No Iterations 6
GAMG:  Solving for p, Initial residual = 0.0105179, Final residual = 0.000882471, No Iterations 2
time step continuity errors : sum local = 0.00230184, global = 7.69329e-05, cumulative = 0.00911348
smoothSolver:  Solving for omega, Initial residual = 0.0025549, Final residual = 0.000251145, No Iterations 5
smoothSolver:  Solving for k, Initial residual = 0.0288835, Final residual = 0.00234404, No Iterations 6
ExecutionTime = 0.49 s  ClockTime = 1 s

scalarTransport execute: age
smoothSolver:  Solving for age, Initial residual = 0.018292, Final residual = 0.00179531, No Iterations 10

Time = 38

smoothSolver:  Solving for Ux, Initial residual = 0.0154898, Final residual = 0.00116075, No Iterations 6
smoothSolver:  Solving for Uy, Initial residual = 0.0103249, Final residual = 0.000783633, No Iterations 6
GAMG:  Solving for p, Initial residual = 0.0103839, Final residual = 0.000680876, No Iterations 3
time step continuity errors : sum local = 0.00177159, global = 5.57084e-05, cumulative = 0.00916919
smoothSolver:  Solving for omega, Initial residual = 0.00243513, Final residual = 0.00023752, No Iterations 5
smoothSolver:  Solving for k, Initial residual = 0.0278735, Final residual = 0.00226414, No Iterations 6
ExecutionTime = 0.5 s  ClockTime = 1 s

scalarTransport execute: age
smoothSolver:  Solving for age, Initial residual = 0.0187334, Final residual = 0.00171429, No Iterations 11

Time = 39

smoothSolver:  Solving for Ux, Initial residual = 0.0153145, Final residual = 0.00113748, No Iterations 6
smoothSolver:  Solving for Uy, Initial residual = 0.0100993, Final residual = 0.000768526, No Iterations 6
GAMG:  Solving for p, Initial residual = 0.00988743, Final residual = 0.000970021, No Iterations 2
time step continuity errors : sum local = 0.00252265, global = 6.51772e-05, cumulative = 0.00923436
smoothSolver:  Solving for omega, Initial residual = 0.00232038, Final residual = 0.000224886, No Iterations 5
smoothSolver:  Solving for k, Initial residual = 0.0269335, Final residual = 0.00218853, No Iterations 6
ExecutionTime = 0.51 s  ClockTime = 1 s

scalarTransport execute: age
smoothSolver:  Solving for age, Initial residual = 0.0195969, Final residual = 0.00191013, No Iterations 11

Time = 40

smoothSolver:  Solving for Ux, Initial residual = 0.0150647, Final residual = 0.00111596, No Iterations 6
smoothSolver:  Solving for Uy, Initial residual = 0.00985942, Final residual = 0.000753199, No Iterations 6
GAMG:  Solving for p, Initial residual = 0.0100139, Final residual = 0.000833844, No Iterations 3
time step continuity errors : sum local = 0.00216088, global = 5.91234e-05, cumulative = 0.00929349
smoothSolver:  Solving for omega, Initial residual = 0.00221793, Final residual = 0.000212855, No Iterations 5
smoothSolver:  Solving for k, Initial residual = 0.0260479, Final residual = 0.0021172, No Iterations 6
ExecutionTime = 0.52 s  ClockTime = 1 s

scalarTransport execute: age
smoothSolver:  Solving for age, Initial residual = 0.0204245, Final residual = 0.00181272, No Iterations 12

Time = 41

smoothSolver:  Solving for Ux, Initial residual = 0.0149625, Final residual = 0.00109662, No Iterations 6
smoothSolver:  Solving for Uy, Initial residual = 0.00974732, Final residual = 0.000746615, No Iterations 6
GAMG:  Solving for p, Initial residual = 0.00976925, Final residual = 0.000647838, No Iterations 3
time step continuity errors : sum local = 0.00167637, global = 5.17871e-05, cumulative = 0.00934527
smoothSolver:  Solving for omega, Initial residual = 0.00212357, Final residual = 0.000201382, No Iterations 5
smoothSolver:  Solving for k, Initial residual = 0.0252275, Final residual = 0.00205, No Iterations 6
ExecutionTime = 0.53 s  ClockTime = 1 s

scalarTransport execute: age
smoothSolver:  Solving for age, Initial residual = 0.0212767, Final residual = 0.00193725, No Iterations 12

Time = 42

smoothSolver:  Solving for Ux, Initial residual = 0.0148083, Final residual = 0.00108085, No Iterations 6
smoothSolver:  Solving for Uy, Initial residual = 0.00966447, Final residual = 0.00074107, No Iterations 6
GAMG:  Solving for p, Initial residual = 0.00963642, Final residual = 0.00061211, No Iterations 3
time step continuity errors : sum local = 0.00157558, global = 5.02706e-05, cumulative = 0.00939555
smoothSolver:  Solving for omega, Initial residual = 0.0020301, Final residual = 0.000191585, No Iterations 5
smoothSolver:  Solving for k, Initial residual = 0.0244514, Final residual = 0.00198659, No Iterations 6
ExecutionTime = 0.55 s  ClockTime = 1 s

scalarTransport execute: age
smoothSolver:  Solving for age, Initial residual = 0.0219916, Final residual = 0.00204652, No Iterations 12

Time = 43

smoothSolver:  Solving for Ux, Initial residual = 0.0146014, Final residual = 0.00106212, No Iterations 6
smoothSolver:  Solving for Uy, Initial residual = 0.00954057, Final residual = 0.000734316, No Iterations 6
GAMG:  Solving for p, Initial residual = 0.00946084, Final residual = 0.000582756, No Iterations 3
time step continuity errors : sum local = 0.00149437, global = 4.73564e-05, cumulative = 0.0094429
smoothSolver:  Solving for omega, Initial residual = 0.00193457, Final residual = 0.000181766, No Iterations 5
smoothSolver:  Solving for k, Initial residual = 0.0237294, Final residual = 0.00192683, No Iterations 6
ExecutionTime = 0.56 s  ClockTime = 1 s

scalarTransport execute: age
smoothSolver:  Solving for age, Initial residual = 0.0222948, Final residual = 0.00207312, No Iterations 12

Time = 44

smoothSolver:  Solving for Ux, Initial residual = 0.0143838, Final residual = 0.00104147, No Iterations 6
smoothSolver:  Solving for Uy, Initial residual = 0.00942334, Final residual = 0.000728219, No Iterations 6
GAMG:  Solving for p, Initial residual = 0.009273, Final residual = 0.000608541, No Iterations 3
time step continuity errors : sum local = 0.001554, global = 4.76386e-05, cumulative = 0.00949054
smoothSolver:  Solving for omega, Initial residual = 0.0018618, Final residual = 0.000173019, No Iterations 5
smoothSolver:  Solving for k, Initial residual = 0.0230473, Final residual = 0.00187043, No Iterations 6
ExecutionTime = 0.57 s  ClockTime = 1 s

scalarTransport execute: age
smoothSolver:  Solving for age, Initial residual = 0.0218903, Final residual = 0.00195351, No Iterations 12

Time = 45

smoothSolver:  Solving for Ux, Initial residual = 0.0141359, Final residual = 0.00101894, No Iterations 6
smoothSolver:  Solving for Uy, Initial residual = 0.00932039, Final residual = 0.000722902, No Iterations 6
GAMG:  Solving for p, Initial residual = 0.00905545, Final residual = 0.000605582, No Iterations 3
time step continuity errors : sum local = 0.0015384, global = 4.91137e-05, cumulative = 0.00953965
smoothSolver:  Solving for omega, Initial residual = 0.00178317, Final residual = 0.000164511, No Iterations 5
smoothSolver:  Solving for k, Initial residual = 0.0224111, Final residual = 0.00181722, No Iterations 6
ExecutionTime = 0.58 s  ClockTime = 1 s

scalarTransport execute: age
smoothSolver:  Solving for age, Initial residual = 0.0213305, Final residual = 0.0020266, No Iterations 11

Time = 46

smoothSolver:  Solving for Ux, Initial residual = 0.0138899, Final residual = 0.000996414, No Iterations 6
smoothSolver:  Solving for Uy, Initial residual = 0.00923185, Final residual = 0.000718714, No Iterations 6
GAMG:  Solving for p, Initial residual = 0.00881669, Final residual = 0.000619273, No Iterations 3
time step continuity errors : sum local = 0.00156407, global = 5.00302e-05, cumulative = 0.00958968
smoothSolver:  Solving for omega, Initial residual = 0.00172056, Final residual = 0.000156963, No Iterations 5
smoothSolver:  Solving for k, Initial residual = 0.0218103, Final residual = 0.00176694, No Iterations 6
ExecutionTime = 0.6 s  ClockTime = 1 s

scalarTransport execute: age
smoothSolver:  Solving for age, Initial residual = 0.0203069, Final residual = 0.00181687, No Iterations 11

Time = 47

smoothSolver:  Solving for Ux, Initial residual = 0.0136306, Final residual = 0.000973805, No Iterations 6
smoothSolver:  Solving for Uy, Initial residual = 0.00915796, Final residual = 0.000715455, No Iterations 6
GAMG:  Solving for p, Initial residual = 0.00859819, Final residual = 0.000615522, No Iterations 3
time step continuity errors : sum local = 0.00154485, global = 5.03232e-05, cumulative = 0.00964001
smoothSolver:  Solving for omega, Initial residual = 0.00165187, Final residual = 0.000149704, No Iterations 5
smoothSolver:  Solving for k, Initial residual = 0.0212474, Final residual = 0.00171931, No Iterations 6
ExecutionTime = 0.61 s  ClockTime = 1 s

scalarTransport execute: age
smoothSolver:  Solving for age, Initial residual = 0.0194088, Final residual = 0.00186348, No Iterations 10

Time = 48

smoothSolver:  Solving for Ux, Initial residual = 0.0133608, Final residual = 0.000950754, No Iterations 6
smoothSolver:  Solving for Uy, Initial residual = 0.00907376, Final residual = 0.000711469, No Iterations 6
GAMG:  Solving for p, Initial residual = 0.00838387, Final residual = 0.000618151, No Iterations 3
time step continuity errors : sum local = 0.00154122, global = 5.19172e-05, cumulative = 0.00969192
smoothSolver:  Solving for omega, Initial residual = 0.00159492, Final residual = 0.000143154, No Iterations 5
smoothSolver:  Solving for k, Initial residual = 0.0207141, Final residual = 0.001674, No Iterations 6
ExecutionTime = 0.62 s  ClockTime = 1 s

scalarTransport execute: age
smoothSolver:  Solving for age, Initial residual = 0.0185763, Final residual = 0.00173131, No Iterations 10

Time = 49

smoothSolver:  Solving for Ux, Initial residual = 0.0130724, Final residual = 0.000926588, No Iterations 6
smoothSolver:  Solving for Uy, Initial residual = 0.00899357, Final residual = 0.000707568, No Iterations 6
GAMG:  Solving for p, Initial residual = 0.00819874, Final residual = 0.000628132, No Iterations 3
time step continuity errors : sum local = 0.0015545, global = 5.35552e-05, cumulative = 0.00974548
smoothSolver:  Solving for omega, Initial residual = 0.00153556, Final residual = 0.000136919, No Iterations 5
smoothSolver:  Solving for k, Initial residual = 0.0202112, Final residual = 0.00163078, No Iterations 6
ExecutionTime = 0.63 s  ClockTime = 1 s

scalarTransport execute: age
smoothSolver:  Solving for age, Initial residual = 0.0179898, Final residual = 0.00159807, No Iterations 10

Time = 50

smoothSolver:  Solving for Ux, Initial residual = 0.0127746, Final residual = 0.000901703, No Iterations 6
smoothSolver:  Solving for Uy, Initial residual = 0.00890634, Final residual = 0.000702865, No Iterations 6
GAMG:  Solving for p, Initial residual = 0.00803044, Final residual = 0.000631339, No Iterations 3
time step continuity errors : sum local = 0.00155075, global = 5.60778e-05, cumulative = 0.00980156
smoothSolver:  Solving for omega, Initial residual = 0.00148498, Final residual = 0.000131187, No Iterations 5
smoothSolver:  Solving for k, Initial residual = 0.0197314, Final residual = 0.0015895, No Iterations 6
ExecutionTime = 0.64 s  ClockTime = 1 s

scalarTransport execute: age
smoothSolver:  Solving for age, Initial residual = 0.0173714, Final residual = 0.00171945, No Iterations 9

Time = 51

smoothSolver:  Solving for Ux, Initial residual = 0.0124708, Final residual = 0.00087636, No Iterations 6
smoothSolver:  Solving for Uy, Initial residual = 0.0088253, Final residual = 0.000697706, No Iterations 6
GAMG:  Solving for p, Initial residual = 0.00788851, Final residual = 0.000641946, No Iterations 3
time step continuity errors : sum local = 0.00156506, global = 5.80867e-05, cumulative = 0.00985964
smoothSolver:  Solving for omega, Initial residual = 0.00143187, Final residual = 0.000125512, No Iterations 5
smoothSolver:  Solving for k, Initial residual = 0.0192761, Final residual = 0.00154993, No Iterations 6
ExecutionTime = 0.66 s  ClockTime = 1 s

scalarTransport execute: age
smoothSolver:  Solving for age, Initial residual = 0.0167879, Final residual = 0.00163839, No Iterations 9

Time = 52

smoothSolver:  Solving for Ux, Initial residual = 0.0121751, Final residual = 0.000850858, No Iterations 6
smoothSolver:  Solving for Uy, Initial residual = 0.00873488, Final residual = 0.000690529, No Iterations 6
GAMG:  Solving for p, Initial residual = 0.00775131, Final residual = 0.000639431, No Iterations 3
time step continuity errors : sum local = 0.00154723, global = 6.07489e-05, cumulative = 0.00992039
smoothSolver:  Solving for omega, Initial residual = 0.00138072, Final residual = 0.000119818, No Iterations 5
smoothSolver:  Solving for k, Initial residual = 0.0188355, Final residual = 0.00151191, No Iterations 6
ExecutionTime = 0.67 s  ClockTime = 1 s

scalarTransport execute: age
smoothSolver:  Solving for age, Initial residual = 0.0160507, Final residual = 0.00155567, No Iterations 9

Time = 53

smoothSolver:  Solving for Ux, Initial residual = 0.0118773, Final residual = 0.000825254, No Iterations 6
smoothSolver:  Solving for Uy, Initial residual = 0.00863634, Final residual = 0.000682067, No Iterations 6
GAMG:  Solving for p, Initial residual = 0.00764904, Final residual = 0.000649663, No Iterations 3
time step continuity errors : sum local = 0.0015601, global = 6.26366e-05, cumulative = 0.00998303
smoothSolver:  Solving for omega, Initial residual = 0.00130973, Final residual = 0.000113691, No Iterations 5
smoothSolver:  Solving for k, Initial residual = 0.018411, Final residual = 0.00147545, No Iterations 6
ExecutionTime = 0.68 s  ClockTime = 1 s

scalarTransport execute: age
smoothSolver:  Solving for age, Initial residual = 0.0153088, Final residual = 0.00148473, No Iterations 9

Time = 54

smoothSolver:  Solving for Ux, Initial residual = 0.0115858, Final residual = 0.000800023, No Iterations 6
smoothSolver:  Solving for Uy, Initial residual = 0.00851825, Final residual = 0.000670915, No Iterations 6
GAMG:  Solving for p, Initial residual = 0.00753975, Final residual = 0.000648631, No Iterations 3
time step continuity errors : sum local = 0.00154574, global = 6.48997e-05, cumulative = 0.0100479
smoothSolver:  Solving for omega, Initial residual = 0.00126976, Final residual = 0.000109026, No Iterations 5
smoothSolver:  Solving for k, Initial residual = 0.0180009, Final residual = 0.00143985, No Iterations 6
ExecutionTime = 0.69 s  ClockTime = 1 s

scalarTransport execute: age
smoothSolver:  Solving for age, Initial residual = 0.0145979, Final residual = 0.0014048, No Iterations 9

Time = 55

smoothSolver:  Solving for Ux, Initial residual = 0.0113101, Final residual = 0.000775172, No Iterations 6
smoothSolver:  Solving for Uy, Initial residual = 0.00837501, Final residual = 0.000657835, No Iterations 6
GAMG:  Solving for p, Initial residual = 0.00746609, Final residual = 0.000656233, No Iterations 3
time step continuity errors : sum local = 0.00155195, global = 6.62085e-05, cumulative = 0.0101141
smoothSolver:  Solving for omega, Initial residual = 0.00123702, Final residual = 0.000104913, No Iterations 5
smoothSolver:  Solving for k, Initial residual = 0.0176013, Final residual = 0.00140469, No Iterations 6
ExecutionTime = 0.7 s  ClockTime = 1 s

scalarTransport execute: age
smoothSolver:  Solving for age, Initial residual = 0.0140197, Final residual = 0.00132248, No Iterations 9

Time = 56

smoothSolver:  Solving for Ux, Initial residual = 0.0110478, Final residual = 0.000750991, No Iterations 6
smoothSolver:  Solving for Uy, Initial residual = 0.0082092, Final residual = 0.000641744, No Iterations 6
GAMG:  Solving for p, Initial residual = 0.00739086, Final residual = 0.000651719, No Iterations 3
time step continuity errors : sum local = 0.00152977, global = 6.75486e-05, cumulative = 0.0101817
smoothSolver:  Solving for omega, Initial residual = 0.00120637, Final residual = 0.000101079, No Iterations 5
smoothSolver:  Solving for k, Initial residual = 0.0172045, Final residual = 0.00136981, No Iterations 6
ExecutionTime = 0.72 s  ClockTime = 1 s

scalarTransport execute: age
smoothSolver:  Solving for age, Initial residual = 0.0133342, Final residual = 0.00124809, No Iterations 9

Time = 57

smoothSolver:  Solving for Ux, Initial residual = 0.0107838, Final residual = 0.000727065, No Iterations 6
smoothSolver:  Solving for Uy, Initial residual = 0.00802501, Final residual = 0.000624329, No Iterations 6
GAMG:  Solving for p, Initial residual = 0.00735682, Final residual = 0.000653706, No Iterations 3
time step continuity errors : sum local = 0.00152361, global = 6.78014e-05, cumulative = 0.0102495
smoothSolver:  Solving for omega, Initial residual = 0.00117561, Final residual = 9.75049e-05, No Iterations 5
smoothSolver:  Solving for k, Initial residual = 0.0168092, Final residual = 0.001335, No Iterations 6
ExecutionTime = 0.73 s  ClockTime = 1 s

scalarTransport execute: age
smoothSolver:  Solving for age, Initial residual = 0.0127005, Final residual = 0.00118685, No Iterations 9

Time = 58

smoothSolver:  Solving for Ux, Initial residual = 0.0105151, Final residual = 0.000703457, No Iterations 6
smoothSolver:  Solving for Uy, Initial residual = 0.00781321, Final residual = 0.000604419, No Iterations 6
GAMG:  Solving for p, Initial residual = 0.00731128, Final residual = 0.000642975, No Iterations 3
time step continuity errors : sum local = 0.00148816, global = 6.79191e-05, cumulative = 0.0103174
smoothSolver:  Solving for omega, Initial residual = 0.00115063, Final residual = 9.42261e-05, No Iterations 5
smoothSolver:  Solving for k, Initial residual = 0.0164111, Final residual = 0.00130003, No Iterations 6
ExecutionTime = 0.74 s  ClockTime = 1 s

scalarTransport execute: age
smoothSolver:  Solving for age, Initial residual = 0.0120836, Final residual = 0.0011321, No Iterations 9

Time = 59

smoothSolver:  Solving for Ux, Initial residual = 0.0102487, Final residual = 0.000680332, No Iterations 6
smoothSolver:  Solving for Uy, Initial residual = 0.00758773, Final residual = 0.000583323, No Iterations 6
GAMG:  Solving for p, Initial residual = 0.00731241, Final residual = 0.000632749, No Iterations 3
time step continuity errors : sum local = 0.00145435, global = 6.76757e-05, cumulative = 0.0103851
smoothSolver:  Solving for omega, Initial residual = 0.00112462, Final residual = 9.10962e-05, No Iterations 5
smoothSolver:  Solving for k, Initial residual = 0.0160075, Final residual = 0.00126455, No Iterations 6
ExecutionTime = 0.75 s  ClockTime = 1 s

scalarTransport execute: age
smoothSolver:  Solving for age, Initial residual = 0.011667, Final residual = 0.00107973, No Iterations 9

Time = 60

smoothSolver:  Solving for Ux, Initial residual = 0.00998185, Final residual = 0.00065787, No Iterations 6
smoothSolver:  Solving for Uy, Initial residual = 0.0073365, Final residual = 0.000560014, No Iterations 6
GAMG:  Solving for p, Initial residual = 0.00729822, Final residual = 0.000616681, No Iterations 3
time step continuity errors : sum local = 0.00140766, global = 6.74338e-05, cumulative = 0.0104525
smoothSolver:  Solving for omega, Initial residual = 0.00110845, Final residual = 8.82128e-05, No Iterations 5
smoothSolver:  Solving for k, Initial residual = 0.015595, Final residual = 0.00122846, No Iterations 6
ExecutionTime = 0.76 s  ClockTime = 1 s

scalarTransport execute: age
smoothSolver:  Solving for age, Initial residual = 0.0111715, Final residual = 0.00102941, No Iterations 9

Time = 61

smoothSolver:  Solving for Ux, Initial residual = 0.0097128, Final residual = 0.000635929, No Iterations 6
smoothSolver:  Solving for Uy, Initial residual = 0.00706703, Final residual = 0.000535645, No Iterations 6
GAMG:  Solving for p, Initial residual = 0.00730571, Final residual = 0.000597344, No Iterations 3
time step continuity errors : sum local = 0.00135372, global = 6.63528e-05, cumulative = 0.0105189
smoothSolver:  Solving for omega, Initial residual = 0.0010986, Final residual = 8.54813e-05, No Iterations 5
smoothSolver:  Solving for k, Initial residual = 0.0151746, Final residual = 0.00119174, No Iterations 6
ExecutionTime = 0.78 s  ClockTime = 1 s

scalarTransport execute: age
smoothSolver:  Solving for age, Initial residual = 0.0106057, Final residual = 0.000979146, No Iterations 9

Time = 62

smoothSolver:  Solving for Ux, Initial residual = 0.00944287, Final residual = 0.000614808, No Iterations 6
smoothSolver:  Solving for Uy, Initial residual = 0.00678386, Final residual = 0.00050962, No Iterations 6
GAMG:  Solving for p, Initial residual = 0.00731313, Final residual = 0.000579638, No Iterations 3
time step continuity errors : sum local = 0.00130403, global = 6.51133e-05, cumulative = 0.010584
smoothSolver:  Solving for omega, Initial residual = 0.00107571, Final residual = 8.25065e-05, No Iterations 5
smoothSolver:  Solving for k, Initial residual = 0.0147403, Final residual = 0.00115404, No Iterations 6
ExecutionTime = 0.79 s  ClockTime = 1 s

scalarTransport execute: age
smoothSolver:  Solving for age, Initial residual = 0.0100904, Final residual = 0.000930766, No Iterations 9

Time = 63

smoothSolver:  Solving for Ux, Initial residual = 0.00918618, Final residual = 0.000915771, No Iterations 5
smoothSolver:  Solving for Uy, Initial residual = 0.00649289, Final residual = 0.000483006, No Iterations 6
GAMG:  Solving for p, Initial residual = 0.00728346, Final residual = 0.000556559, No Iterations 3
time step continuity errors : sum local = 0.00124298, global = 6.2864e-05, cumulative = 0.0106468
smoothSolver:  Solving for omega, Initial residual = 0.00105085, Final residual = 7.94713e-05, No Iterations 5
smoothSolver:  Solving for k, Initial residual = 0.0142947, Final residual = 0.00111564, No Iterations 6
ExecutionTime = 0.8 s  ClockTime = 1 s

scalarTransport execute: age
smoothSolver:  Solving for age, Initial residual = 0.00964452, Final residual = 0.000883653, No Iterations 9

Time = 64

smoothSolver:  Solving for Ux, Initial residual = 0.00902037, Final residual = 0.000896116, No Iterations 5
smoothSolver:  Solving for Uy, Initial residual = 0.00616298, Final residual = 0.000453325, No Iterations 6
GAMG:  Solving for p, Initial residual = 0.00738584, Final residual = 0.000539316, No Iterations 3
time step continuity errors : sum local = 0.00119529, global = 6.12013e-05, cumulative = 0.010708
smoothSolver:  Solving for omega, Initial residual = 0.00102657, Final residual = 7.65891e-05, No Iterations 5
smoothSolver:  Solving for k, Initial residual = 0.0138342, Final residual = 0.00107647, No Iterations 6
ExecutionTime = 0.81 s  ClockTime = 1 s

scalarTransport execute: age
smoothSolver:  Solving for age, Initial residual = 0.00927353, Final residual = 0.00084138, No Iterations 9

Time = 65

smoothSolver:  Solving for Ux, Initial residual = 0.00881252, Final residual = 0.000872441, No Iterations 5
smoothSolver:  Solving for Uy, Initial residual = 0.00585532, Final residual = 0.000425321, No Iterations 6
GAMG:  Solving for p, Initial residual = 0.00755384, Final residual = 0.000520807, No Iterations 3
time step continuity errors : sum local = 0.00114517, global = 6.01684e-05, cumulative = 0.0107682
smoothSolver:  Solving for omega, Initial residual = 0.00100121, Final residual = 7.39082e-05, No Iterations 5
smoothSolver:  Solving for k, Initial residual = 0.0133659, Final residual = 0.00103697, No Iterations 6
ExecutionTime = 0.83 s  ClockTime = 1 s

scalarTransport execute: age
smoothSolver:  Solving for age, Initial residual = 0.00894721, Final residual = 0.00080754, No Iterations 9

Time = 66

smoothSolver:  Solving for Ux, Initial residual = 0.00859508, Final residual = 0.000847547, No Iterations 5
smoothSolver:  Solving for Uy, Initial residual = 0.00555909, Final residual = 0.000397999, No Iterations 6
GAMG:  Solving for p, Initial residual = 0.0077863, Final residual = 0.000504832, No Iterations 3
time step continuity errors : sum local = 0.00110353, global = 5.957e-05, cumulative = 0.0108278
smoothSolver:  Solving for omega, Initial residual = 0.000982703, Final residual = 7.12628e-05, No Iterations 5
smoothSolver:  Solving for k, Initial residual = 0.0128963, Final residual = 0.000997477, No Iterations 6
ExecutionTime = 0.84 s  ClockTime = 1 s

scalarTransport execute: age
smoothSolver:  Solving for age, Initial residual = 0.00865233, Final residual = 0.000788819, No Iterations 9

Time = 67

smoothSolver:  Solving for Ux, Initial residual = 0.00837472, Final residual = 0.000823672, No Iterations 5
smoothSolver:  Solving for Uy, Initial residual = 0.0052805, Final residual = 0.00037201, No Iterations 6
GAMG:  Solving for p, Initial residual = 0.00798769, Final residual = 0.000487903, No Iterations 3
time step continuity errors : sum local = 0.00106141, global = 5.90577e-05, cumulative = 0.0108868
smoothSolver:  Solving for omega, Initial residual = 0.000959146, Final residual = 6.87131e-05, No Iterations 5
smoothSolver:  Solving for k, Initial residual = 0.0124195, Final residual = 0.0009581, No Iterations 6
ExecutionTime = 0.85 s  ClockTime = 1 s

scalarTransport execute: age
smoothSolver:  Solving for age, Initial residual = 0.00842127, Final residual = 0.000788167, No Iterations 9

Time = 68

smoothSolver:  Solving for Ux, Initial residual = 0.00818005, Final residual = 0.000802395, No Iterations 5
smoothSolver:  Solving for Uy, Initial residual = 0.00502067, Final residual = 0.000347688, No Iterations 6
GAMG:  Solving for p, Initial residual = 0.00815017, Final residual = 0.000476659, No Iterations 3
time step continuity errors : sum local = 0.00103261, global = 5.86098e-05, cumulative = 0.0109455
smoothSolver:  Solving for omega, Initial residual = 0.000937828, Final residual = 6.6325e-05, No Iterations 5
smoothSolver:  Solving for k, Initial residual = 0.0119436, Final residual = 0.000919183, No Iterations 6
ExecutionTime = 0.86 s  ClockTime = 1 s

scalarTransport execute: age
smoothSolver:  Solving for age, Initial residual = 0.00826253, Final residual = 0.000804299, No Iterations 9

Time = 69

smoothSolver:  Solving for Ux, Initial residual = 0.00799493, Final residual = 0.000783026, No Iterations 5
smoothSolver:  Solving for Uy, Initial residual = 0.00479164, Final residual = 0.000326718, No Iterations 6
GAMG:  Solving for p, Initial residual = 0.0082147, Final residual = 0.000470317, No Iterations 3
time step continuity errors : sum local = 0.00101634, global = 5.81896e-05, cumulative = 0.0110036
smoothSolver:  Solving for omega, Initial residual = 0.000918696, Final residual = 6.39836e-05, No Iterations 5
smoothSolver:  Solving for k, Initial residual = 0.0114727, Final residual = 0.000881024, No Iterations 6
ExecutionTime = 0.87 s  ClockTime = 1 s

scalarTransport execute: age
smoothSolver:  Solving for age, Initial residual = 0.00815415, Final residual = 0.000733936, No Iterations 10

Time = 70

smoothSolver:  Solving for Ux, Initial residual = 0.00781274, Final residual = 0.000765448, No Iterations 5
smoothSolver:  Solving for Uy, Initial residual = 0.00458003, Final residual = 0.000310666, No Iterations 6
GAMG:  Solving for p, Initial residual = 0.00819555, Final residual = 0.000467997, No Iterations 3
time step continuity errors : sum local = 0.00101072, global = 5.72493e-05, cumulative = 0.0110609
smoothSolver:  Solving for omega, Initial residual = 0.000901563, Final residual = 6.16076e-05, No Iterations 5
smoothSolver:  Solving for k, Initial residual = 0.0110126, Final residual = 0.000843947, No Iterations 6
ExecutionTime = 0.89 s  ClockTime = 1 s

scalarTransport execute: age
smoothSolver:  Solving for age, Initial residual = 0.00805036, Final residual = 0.000769506, No Iterations 10

Time = 71

smoothSolver:  Solving for Ux, Initial residual = 0.00765172, Final residual = 0.000749927, No Iterations 5
smoothSolver:  Solving for Uy, Initial residual = 0.00438824, Final residual = 0.000296579, No Iterations 6
GAMG:  Solving for p, Initial residual = 0.00811131, Final residual = 0.000463087, No Iterations 3
time step continuity errors : sum local = 0.00100012, global = 5.65528e-05, cumulative = 0.0111174
smoothSolver:  Solving for omega, Initial residual = 0.000882802, Final residual = 5.91532e-05, No Iterations 5
smoothSolver:  Solving for k, Initial residual = 0.0105684, Final residual = 0.000808334, No Iterations 6
ExecutionTime = 0.9 s  ClockTime = 1 s

scalarTransport execute: age
smoothSolver:  Solving for age, Initial residual = 0.00798773, Final residual = 0.000717986, No Iterations 11

Time = 72

smoothSolver:  Solving for Ux, Initial residual = 0.0074961, Final residual = 0.000735706, No Iterations 5
smoothSolver:  Solving for Uy, Initial residual = 0.00422485, Final residual = 0.000283451, No Iterations 6
GAMG:  Solving for p, Initial residual = 0.00802372, Final residual = 0.000452818, No Iterations 3
time step continuity errors : sum local = 0.000978428, global = 5.55263e-05, cumulative = 0.011173
smoothSolver:  Solving for omega, Initial residual = 0.000861232, Final residual = 5.66339e-05, No Iterations 5
smoothSolver:  Solving for k, Initial residual = 0.0101449, Final residual = 0.000774323, No Iterations 6
ExecutionTime = 0.91 s  ClockTime = 1 s

scalarTransport execute: age
smoothSolver:  Solving for age, Initial residual = 0.00797407, Final residual = 0.00076088, No Iterations 11

Time = 73

smoothSolver:  Solving for Ux, Initial residual = 0.00733279, Final residual = 0.000723239, No Iterations 5
smoothSolver:  Solving for Uy, Initial residual = 0.004082, Final residual = 0.000271094, No Iterations 6
GAMG:  Solving for p, Initial residual = 0.00792774, Final residual = 0.000438377, No Iterations 3
time step continuity errors : sum local = 0.000947744, global = 5.3879e-05, cumulative = 0.0112269
smoothSolver:  Solving for omega, Initial residual = 0.000836899, Final residual = 5.4051e-05, No Iterations 5
smoothSolver:  Solving for k, Initial residual = 0.0097461, Final residual = 0.000742071, No Iterations 6
ExecutionTime = 0.92 s  ClockTime = 1 s

scalarTransport execute: age
smoothSolver:  Solving for age, Initial residual = 0.00802268, Final residual = 0.00071077, No Iterations 12

Time = 74

smoothSolver:  Solving for Ux, Initial residual = 0.00718265, Final residual = 0.000711431, No Iterations 5
smoothSolver:  Solving for Uy, Initial residual = 0.00394527, Final residual = 0.00025955, No Iterations 6
GAMG:  Solving for p, Initial residual = 0.00782897, Final residual = 0.000420632, No Iterations 3
time step continuity errors : sum local = 0.000909779, global = 5.18766e-05, cumulative = 0.0112787
smoothSolver:  Solving for omega, Initial residual = 0.000811168, Final residual = 5.13933e-05, No Iterations 5
smoothSolver:  Solving for k, Initial residual = 0.00937897, Final residual = 0.000711526, No Iterations 6
ExecutionTime = 0.93 s  ClockTime = 1 s

scalarTransport execute: age
smoothSolver:  Solving for age, Initial residual = 0.00805099, Final residual = 0.000747473, No Iterations 12

Time = 75

smoothSolver:  Solving for Ux, Initial residual = 0.00703836, Final residual = 0.000699596, No Iterations 5
smoothSolver:  Solving for Uy, Initial residual = 0.00381557, Final residual = 0.000249109, No Iterations 6
GAMG:  Solving for p, Initial residual = 0.00767948, Final residual = 0.000401909, No Iterations 3
time step continuity errors : sum local = 0.000869522, global = 4.91176e-05, cumulative = 0.0113278
smoothSolver:  Solving for omega, Initial residual = 0.000784709, Final residual = 4.87829e-05, No Iterations 5
smoothSolver:  Solving for k, Initial residual = 0.00903724, Final residual = 0.000682496, No Iterations 6
ExecutionTime = 0.95 s  ClockTime = 1 s

scalarTransport execute: age
smoothSolver:  Solving for age, Initial residual = 0.0081103, Final residual = 0.000781415, No Iterations 12

Time = 76

smoothSolver:  Solving for Ux, Initial residual = 0.00690109, Final residual = 0.00068904, No Iterations 5
smoothSolver:  Solving for Uy, Initial residual = 0.00369062, Final residual = 0.000368615, No Iterations 5
GAMG:  Solving for p, Initial residual = 0.00752282, Final residual = 0.00038928, No Iterations 3
time step continuity errors : sum local = 0.000842129, global = 4.76968e-05, cumulative = 0.0113755
smoothSolver:  Solving for omega, Initial residual = 0.000756146, Final residual = 4.61812e-05, No Iterations 5
smoothSolver:  Solving for k, Initial residual = 0.00871351, Final residual = 0.000654713, No Iterations 6
ExecutionTime = 0.96 s  ClockTime = 1 s

scalarTransport execute: age
smoothSolver:  Solving for age, Initial residual = 0.0081236, Final residual = 0.00080754, No Iterations 12

Time = 77

smoothSolver:  Solving for Ux, Initial residual = 0.00673088, Final residual = 0.000438021, No Iterations 6
smoothSolver:  Solving for Uy, Initial residual = 0.00363461, Final residual = 0.000362904, No Iterations 5
GAMG:  Solving for p, Initial residual = 0.00736949, Final residual = 0.000368587, No Iterations 3
time step continuity errors : sum local = 0.000797452, global = 4.35099e-05, cumulative = 0.0114191
smoothSolver:  Solving for omega, Initial residual = 0.000727932, Final residual = 7.19169e-05, No Iterations 4
smoothSolver:  Solving for k, Initial residual = 0.00840621, Final residual = 0.000628182, No Iterations 6
ExecutionTime = 0.97 s  ClockTime = 1 s

scalarTransport execute: age
smoothSolver:  Solving for age, Initial residual = 0.00814912, Final residual = 0.000726672, No Iterations 13

Time = 78

smoothSolver:  Solving for Ux, Initial residual = 0.00654767, Final residual = 0.000425845, No Iterations 6
smoothSolver:  Solving for Uy, Initial residual = 0.0035932, Final residual = 0.000358729, No Iterations 5
GAMG:  Solving for p, Initial residual = 0.00719749, Final residual = 0.000717063, No Iterations 2
time step continuity errors : sum local = 0.00155176, global = 9.60654e-05, cumulative = 0.0115151
smoothSolver:  Solving for omega, Initial residual = 0.000711834, Final residual = 6.903e-05, No Iterations 4
smoothSolver:  Solving for k, Initial residual = 0.00810818, Final residual = 0.000602276, No Iterations 6
ExecutionTime = 0.98 s  ClockTime = 1 s

scalarTransport execute: age
smoothSolver:  Solving for age, Initial residual = 0.00807473, Final residual = 0.00072698, No Iterations 13

Time = 79

smoothSolver:  Solving for Ux, Initial residual = 0.00636937, Final residual = 0.000415804, No Iterations 6
smoothSolver:  Solving for Uy, Initial residual = 0.00352226, Final residual = 0.000351249, No Iterations 5
GAMG:  Solving for p, Initial residual = 0.00719945, Final residual = 0.000503436, No Iterations 3
time step continuity errors : sum local = 0.00109252, global = 1.45605e-05, cumulative = 0.0115297
smoothSolver:  Solving for omega, Initial residual = 0.000698137, Final residual = 6.59048e-05, No Iterations 4
smoothSolver:  Solving for k, Initial residual = 0.00782009, Final residual = 0.000577625, No Iterations 6
ExecutionTime = 0.99 s  ClockTime = 1 s

scalarTransport execute: age
smoothSolver:  Solving for age, Initial residual = 0.00823558, Final residual = 0.000729508, No Iterations 13

Time = 80

smoothSolver:  Solving for Ux, Initial residual = 0.00624265, Final residual = 0.000621227, No Iterations 5
smoothSolver:  Solving for Uy, Initial residual = 0.00350572, Final residual = 0.000347511, No Iterations 5
GAMG:  Solving for p, Initial residual = 0.00685139, Final residual = 0.000675469, No Iterations 2
time step continuity errors : sum local = 0.00145943, global = 9.78993e-05, cumulative = 0.0116276
smoothSolver:  Solving for omega, Initial residual = 0.000681083, Final residual = 6.36681e-05, No Iterations 4
smoothSolver:  Solving for k, Initial residual = 0.00754879, Final residual = 0.000553074, No Iterations 6
ExecutionTime = 1.01 s  ClockTime = 1 s

scalarTransport execute: age
smoothSolver:  Solving for age, Initial residual = 0.00802189, Final residual = 0.000708871, No Iterations 13

Time = 81

smoothSolver:  Solving for Ux, Initial residual = 0.00605543, Final residual = 0.000395161, No Iterations 6
smoothSolver:  Solving for Uy, Initial residual = 0.00334012, Final residual = 0.000329151, No Iterations 5
GAMG:  Solving for p, Initial residual = 0.00673775, Final residual = 0.000457965, No Iterations 3
time step continuity errors : sum local = 0.000993473, global = 2.93105e-06, cumulative = 0.0116305
smoothSolver:  Solving for omega, Initial residual = 0.000662739, Final residual = 6.16204e-05, No Iterations 4
smoothSolver:  Solving for k, Initial residual = 0.00726851, Final residual = 0.000529777, No Iterations 6
ExecutionTime = 1.02 s  ClockTime = 1 s

scalarTransport execute: age
smoothSolver:  Solving for age, Initial residual = 0.00801615, Final residual = 0.000780147, No Iterations 12

Time = 82

smoothSolver:  Solving for Ux, Initial residual = 0.00589633, Final residual = 0.000588484, No Iterations 5
smoothSolver:  Solving for Uy, Initial residual = 0.00338751, Final residual = 0.000332073, No Iterations 5
GAMG:  Solving for p, Initial residual = 0.00664414, Final residual = 0.000605855, No Iterations 2
time step continuity errors : sum local = 0.00130618, global = 9.10191e-05, cumulative = 0.0117215
smoothSolver:  Solving for omega, Initial residual = 0.000651735, Final residual = 5.94855e-05, No Iterations 4
smoothSolver:  Solving for k, Initial residual = 0.00701681, Final residual = 0.000506639, No Iterations 6
ExecutionTime = 1.03 s  ClockTime = 1 s

scalarTransport execute: age
smoothSolver:  Solving for age, Initial residual = 0.00769104, Final residual = 0.000743382, No Iterations 12

Time = 83

smoothSolver:  Solving for Ux, Initial residual = 0.00569251, Final residual = 0.000370893, No Iterations 6
smoothSolver:  Solving for Uy, Initial residual = 0.00322853, Final residual = 0.000314783, No Iterations 5
GAMG:  Solving for p, Initial residual = 0.00653601, Final residual = 0.000415904, No Iterations 3
time step continuity errors : sum local = 0.000898564, global = -1.39459e-06, cumulative = 0.0117201
smoothSolver:  Solving for omega, Initial residual = 0.000638524, Final residual = 5.74986e-05, No Iterations 4
smoothSolver:  Solving for k, Initial residual = 0.00675087, Final residual = 0.000484888, No Iterations 6
ExecutionTime = 1.04 s  ClockTime = 1 s

scalarTransport execute: age
smoothSolver:  Solving for age, Initial residual = 0.00759638, Final residual = 0.000698363, No Iterations 12

Time = 84

smoothSolver:  Solving for Ux, Initial residual = 0.00550027, Final residual = 0.000544151, No Iterations 5
smoothSolver:  Solving for Uy, Initial residual = 0.00331135, Final residual = 0.000322754, No Iterations 5
GAMG:  Solving for p, Initial residual = 0.00642884, Final residual = 0.000550801, No Iterations 2
time step continuity errors : sum local = 0.00118445, global = 9.29189e-05, cumulative = 0.0118131
smoothSolver:  Solving for omega, Initial residual = 0.000632041, Final residual = 5.53623e-05, No Iterations 4
smoothSolver:  Solving for k, Initial residual = 0.00651941, Final residual = 0.000463016, No Iterations 6
ExecutionTime = 1.05 s  ClockTime = 1 s

scalarTransport execute: age
smoothSolver:  Solving for age, Initial residual = 0.00724533, Final residual = 0.000649806, No Iterations 12

Time = 85

smoothSolver:  Solving for Ux, Initial residual = 0.00527176, Final residual = 0.000523653, No Iterations 5
smoothSolver:  Solving for Uy, Initial residual = 0.00315829, Final residual = 0.000305751, No Iterations 5
GAMG:  Solving for p, Initial residual = 0.00630184, Final residual = 0.000392962, No Iterations 3
time step continuity errors : sum local = 0.000845603, global = -3.88798e-06, cumulative = 0.0118092
smoothSolver:  Solving for omega, Initial residual = 0.000617363, Final residual = 5.3285e-05, No Iterations 4
smoothSolver:  Solving for k, Initial residual = 0.00626743, Final residual = 0.000442284, No Iterations 6
ExecutionTime = 1.07 s  ClockTime = 1 s

scalarTransport execute: age
smoothSolver:  Solving for age, Initial residual = 0.00710834, Final residual = 0.000700156, No Iterations 11

Time = 86

smoothSolver:  Solving for Ux, Initial residual = 0.00510427, Final residual = 0.000499238, No Iterations 5
smoothSolver:  Solving for Uy, Initial residual = 0.0032217, Final residual = 0.000312403, No Iterations 5
GAMG:  Solving for p, Initial residual = 0.00612798, Final residual = 0.000508314, No Iterations 2
time step continuity errors : sum local = 0.00108707, global = 9.15829e-05, cumulative = 0.0119007
smoothSolver:  Solving for omega, Initial residual = 0.000611887, Final residual = 5.10462e-05, No Iterations 4
smoothSolver:  Solving for k, Initial residual = 0.00604988, Final residual = 0.000421463, No Iterations 6
ExecutionTime = 1.08 s  ClockTime = 1 s

scalarTransport execute: age
smoothSolver:  Solving for age, Initial residual = 0.00676808, Final residual = 0.000656369, No Iterations 11

Time = 87

smoothSolver:  Solving for Ux, Initial residual = 0.004849, Final residual = 0.000474711, No Iterations 5
smoothSolver:  Solving for Uy, Initial residual = 0.00309915, Final residual = 0.000297034, No Iterations 5
GAMG:  Solving for p, Initial residual = 0.00600335, Final residual = 0.000595547, No Iterations 2
time step continuity errors : sum local = 0.00127355, global = 0.000184318, cumulative = 0.0120851
smoothSolver:  Solving for omega, Initial residual = 0.00058919, Final residual = 4.88531e-05, No Iterations 4
smoothSolver:  Solving for k, Initial residual = 0.00581352, Final residual = 0.000401419, No Iterations 6
ExecutionTime = 1.09 s  ClockTime = 1 s

scalarTransport execute: age
smoothSolver:  Solving for age, Initial residual = 0.00645533, Final residual = 0.000608452, No Iterations 11

Time = 88

smoothSolver:  Solving for Ux, Initial residual = 0.00460103, Final residual = 0.000445141, No Iterations 5
smoothSolver:  Solving for Uy, Initial residual = 0.00310167, Final residual = 0.000293831, No Iterations 5
GAMG:  Solving for p, Initial residual = 0.00585976, Final residual = 0.000330938, No Iterations 3
time step continuity errors : sum local = 0.000706702, global = -1.42855e-06, cumulative = 0.0120836
smoothSolver:  Solving for omega, Initial residual = 0.000580311, Final residual = 4.63559e-05, No Iterations 4
smoothSolver:  Solving for k, Initial residual = 0.00557795, Final residual = 0.000381972, No Iterations 6
ExecutionTime = 1.09 s  ClockTime = 1 s

scalarTransport execute: age
smoothSolver:  Solving for age, Initial residual = 0.00635943, Final residual = 0.00057749, No Iterations 11

Time = 89

smoothSolver:  Solving for Ux, Initial residual = 0.00446352, Final residual = 0.000424829, No Iterations 5
smoothSolver:  Solving for Uy, Initial residual = 0.00315988, Final residual = 0.000304201, No Iterations 5
GAMG:  Solving for p, Initial residual = 0.00569292, Final residual = 0.000457684, No Iterations 2
time step continuity errors : sum local = 0.000968255, global = 8.51655e-05, cumulative = 0.0121688
smoothSolver:  Solving for omega, Initial residual = 0.000578518, Final residual = 4.4262e-05, No Iterations 4
smoothSolver:  Solving for k, Initial residual = 0.00538544, Final residual = 0.000362823, No Iterations 6
ExecutionTime = 1.1 s  ClockTime = 1 s

scalarTransport execute: age
smoothSolver:  Solving for age, Initial residual = 0.00608772, Final residual = 0.000547851, No Iterations 11

Time = 90

smoothSolver:  Solving for Ux, Initial residual = 0.00415718, Final residual = 0.000397524, No Iterations 5
smoothSolver:  Solving for Uy, Initial residual = 0.00305594, Final residual = 0.000291061, No Iterations 5
GAMG:  Solving for p, Initial residual = 0.00548418, Final residual = 0.000522293, No Iterations 2
time step continuity errors : sum local = 0.00110353, global = 0.000176428, cumulative = 0.0123452
smoothSolver:  Solving for omega, Initial residual = 0.000547334, Final residual = 4.21548e-05, No Iterations 4
smoothSolver:  Solving for k, Initial residual = 0.00516269, Final residual = 0.000344373, No Iterations 6
ExecutionTime = 1.11 s  ClockTime = 1 s

scalarTransport execute: age
smoothSolver:  Solving for age, Initial residual = 0.00580432, Final residual = 0.000521333, No Iterations 11

Time = 91

smoothSolver:  Solving for Ux, Initial residual = 0.00390793, Final residual = 0.000368652, No Iterations 5
smoothSolver:  Solving for Uy, Initial residual = 0.00303238, Final residual = 0.000284335, No Iterations 5
GAMG:  Solving for p, Initial residual = 0.0053124, Final residual = 0.000309703, No Iterations 3
time step continuity errors : sum local = 0.00065304, global = -2.75795e-06, cumulative = 0.0123425
smoothSolver:  Solving for omega, Initial residual = 0.000535891, Final residual = 3.98097e-05, No Iterations 4
smoothSolver:  Solving for k, Initial residual = 0.00493517, Final residual = 0.000326558, No Iterations 6
ExecutionTime = 1.14 s  ClockTime = 1 s

scalarTransport execute: age
smoothSolver:  Solving for age, Initial residual = 0.00565356, Final residual = 0.000501373, No Iterations 11

Time = 92

smoothSolver:  Solving for Ux, Initial residual = 0.00377589, Final residual = 0.000347288, No Iterations 5
smoothSolver:  Solving for Uy, Initial residual = 0.00307694, Final residual = 0.000291225, No Iterations 5
GAMG:  Solving for p, Initial residual = 0.00517196, Final residual = 0.000443348, No Iterations 2
time step continuity errors : sum local = 0.000925722, global = 7.68045e-05, cumulative = 0.0124193
smoothSolver:  Solving for omega, Initial residual = 0.000535729, Final residual = 3.82519e-05, No Iterations 4
smoothSolver:  Solving for k, Initial residual = 0.00475481, Final residual = 0.000309352, No Iterations 6
ExecutionTime = 1.15 s  ClockTime = 1 s

scalarTransport execute: age
smoothSolver:  Solving for age, Initial residual = 0.00543385, Final residual = 0.000488231, No Iterations 11

Time = 93

smoothSolver:  Solving for Ux, Initial residual = 0.00348821, Final residual = 0.000322132, No Iterations 5
smoothSolver:  Solving for Uy, Initial residual = 0.00296977, Final residual = 0.000278871, No Iterations 5
GAMG:  Solving for p, Initial residual = 0.00502151, Final residual = 0.000499046, No Iterations 2
time step continuity errors : sum local = 0.00104143, global = 0.000168198, cumulative = 0.0125875
smoothSolver:  Solving for omega, Initial residual = 0.000506367, Final residual = 3.66635e-05, No Iterations 4
smoothSolver:  Solving for k, Initial residual = 0.00454039, Final residual = 0.000292919, No Iterations 6
ExecutionTime = 1.16 s  ClockTime = 1 s

scalarTransport execute: age
smoothSolver:  Solving for age, Initial residual = 0.00520685, Final residual = 0.00047719, No Iterations 11

Time = 94

smoothSolver:  Solving for Ux, Initial residual = 0.00327088, Final residual = 0.000296064, No Iterations 5
smoothSolver:  Solving for Uy, Initial residual = 0.00293084, Final residual = 0.000269755, No Iterations 5
GAMG:  Solving for p, Initial residual = 0.0049112, Final residual = 0.000315742, No Iterations 3
time step continuity errors : sum local = 0.000658161, global = -5.8082e-06, cumulative = 0.0125817
smoothSolver:  Solving for omega, Initial residual = 0.000498692, Final residual = 3.48589e-05, No Iterations 4
smoothSolver:  Solving for k, Initial residual = 0.0043175, Final residual = 0.000430379, No Iterations 5
ExecutionTime = 1.17 s  ClockTime = 1 s

scalarTransport execute: age
smoothSolver:  Solving for age, Initial residual = 0.00507052, Final residual = 0.000468929, No Iterations 11

Time = 95

smoothSolver:  Solving for Ux, Initial residual = 0.00315682, Final residual = 0.000274352, No Iterations 5
smoothSolver:  Solving for Uy, Initial residual = 0.00294206, Final residual = 0.000271749, No Iterations 5
GAMG:  Solving for p, Initial residual = 0.00482322, Final residual = 0.000422049, No Iterations 2
time step continuity errors : sum local = 0.000871609, global = 6.28215e-05, cumulative = 0.0126445
smoothSolver:  Solving for omega, Initial residual = 0.000492293, Final residual = 3.38322e-05, No Iterations 4
smoothSolver:  Solving for k, Initial residual = 0.00414858, Final residual = 0.000408068, No Iterations 5
ExecutionTime = 1.18 s  ClockTime = 1 s

scalarTransport execute: age
smoothSolver:  Solving for age, Initial residual = 0.00487941, Final residual = 0.000463686, No Iterations 11

Time = 96

[...]

Time = 599

smoothSolver:  Solving for Ux, Initial residual = 7.77777e-07, Final residual = 5.01061e-08, No Iterations 5
smoothSolver:  Solving for Uy, Initial residual = 5.50297e-07, Final residual = 4.61304e-08, No Iterations 5
GAMG:  Solving for p, Initial residual = 1.6031e-06, Final residual = 8.56711e-08, No Iterations 3
time step continuity errors : sum local = 2.0217e-07, global = 1.004e-08, cumulative = 0.0167043
smoothSolver:  Solving for omega, Initial residual = 7.88405e-08, Final residual = 8.90451e-09, No Iterations 3
smoothSolver:  Solving for k, Initial residual = 1.17671e-07, Final residual = 8.10605e-09, No Iterations 5
ExecutionTime = 7.1 s  ClockTime = 7 s

scalarTransport execute: age
smoothSolver:  Solving for age, Initial residual = 0.000337266, Final residual = 3.27193e-05, No Iterations 14

Time = 600

smoothSolver:  Solving for Ux, Initial residual = 7.60502e-07, Final residual = 4.89941e-08, No Iterations 5
smoothSolver:  Solving for Uy, Initial residual = 5.38236e-07, Final residual = 4.51459e-08, No Iterations 5
GAMG:  Solving for p, Initial residual = 1.56821e-06, Final residual = 1.56749e-07, No Iterations 2
time step continuity errors : sum local = 3.69902e-07, global = 1.81269e-08, cumulative = 0.0167043
smoothSolver:  Solving for omega, Initial residual = 8.05572e-08, Final residual = 8.74987e-09, No Iterations 3
smoothSolver:  Solving for k, Initial residual = 1.17398e-07, Final residual = 7.99026e-09, No Iterations 5
ExecutionTime = 7.11 s  ClockTime = 7 s

scalarTransport execute: age
smoothSolver:  Solving for age, Initial residual = 0.000336683, Final residual = 3.26637e-05, No Iterations 14

Time = 601

smoothSolver:  Solving for Ux, Initial residual = 7.65572e-07, Final residual = 5.01632e-08, No Iterations 5
smoothSolver:  Solving for Uy, Initial residual = 5.21906e-07, Final residual = 4.32423e-08, No Iterations 5
GAMG:  Solving for p, Initial residual = 1.60848e-06, Final residual = 1.00785e-07, No Iterations 3
time step continuity errors : sum local = 2.37836e-07, global = 9.34404e-09, cumulative = 0.0167043
smoothSolver:  Solving for omega, Initial residual = 8.20608e-08, Final residual = 8.4912e-09, No Iterations 3
smoothSolver:  Solving for k, Initial residual = 1.13489e-07, Final residual = 7.78015e-09, No Iterations 5
ExecutionTime = 7.12 s  ClockTime = 7 s

scalarTransport execute: age
smoothSolver:  Solving for age, Initial residual = 0.000336076, Final residual = 3.26032e-05, No Iterations 14

Time = 602

smoothSolver:  Solving for Ux, Initial residual = 7.29272e-07, Final residual = 4.62932e-08, No Iterations 5
smoothSolver:  Solving for Uy, Initial residual = 5.06267e-07, Final residual = 4.2594e-08, No Iterations 5
GAMG:  Solving for p, Initial residual = 1.52707e-06, Final residual = 1.3817e-07, No Iterations 2
time step continuity errors : sum local = 3.2606e-07, global = 1.82175e-08, cumulative = 0.0167044
smoothSolver:  Solving for omega, Initial residual = 8.18189e-08, Final residual = 8.48841e-09, No Iterations 3
smoothSolver:  Solving for k, Initial residual = 1.13141e-07, Final residual = 7.67387e-09, No Iterations 5
ExecutionTime = 7.13 s  ClockTime = 7 s

scalarTransport execute: age
smoothSolver:  Solving for age, Initial residual = 0.000335486, Final residual = 3.25478e-05, No Iterations 14

Time = 603

smoothSolver:  Solving for Ux, Initial residual = 7.27904e-07, Final residual = 4.73042e-08, No Iterations 5
smoothSolver:  Solving for Uy, Initial residual = 5.00421e-07, Final residual = 4.15001e-08, No Iterations 5
GAMG:  Solving for p, Initial residual = 1.50684e-06, Final residual = 1.00413e-07, No Iterations 3
time step continuity errors : sum local = 2.36959e-07, global = 6.47394e-09, cumulative = 0.0167044
smoothSolver:  Solving for omega, Initial residual = 8.13138e-08, Final residual = 8.1275e-09, No Iterations 3
smoothSolver:  Solving for k, Initial residual = 1.0884e-07, Final residual = 7.47007e-09, No Iterations 5
ExecutionTime = 7.14 s  ClockTime = 7 s

scalarTransport execute: age
smoothSolver:  Solving for age, Initial residual = 0.000334896, Final residual = 3.24886e-05, No Iterations 14

Time = 604

smoothSolver:  Solving for Ux, Initial residual = 6.89126e-07, Final residual = 4.38481e-08, No Iterations 5
smoothSolver:  Solving for Uy, Initial residual = 4.97046e-07, Final residual = 4.17373e-08, No Iterations 5
GAMG:  Solving for p, Initial residual = 1.47053e-06, Final residual = 1.33102e-07, No Iterations 2
time step continuity errors : sum local = 3.14099e-07, global = 1.50832e-08, cumulative = 0.0167044
smoothSolver:  Solving for omega, Initial residual = 7.86788e-08, Final residual = 8.13674e-09, No Iterations 3
smoothSolver:  Solving for k, Initial residual = 1.0863e-07, Final residual = 7.37165e-09, No Iterations 5
ExecutionTime = 7.15 s  ClockTime = 7 s

scalarTransport execute: age
smoothSolver:  Solving for age, Initial residual = 0.000334311, Final residual = 3.24331e-05, No Iterations 14

Time = 605

smoothSolver:  Solving for Ux, Initial residual = 6.89247e-07, Final residual = 4.48261e-08, No Iterations 5
smoothSolver:  Solving for Uy, Initial residual = 4.87445e-07, Final residual = 4.03655e-08, No Iterations 5
GAMG:  Solving for p, Initial residual = 1.4536e-06, Final residual = 8.97433e-08, No Iterations 3
time step continuity errors : sum local = 2.11781e-07, global = 8.54782e-09, cumulative = 0.0167044
smoothSolver:  Solving for omega, Initial residual = 7.62322e-08, Final residual = 7.80497e-09, No Iterations 3
smoothSolver:  Solving for k, Initial residual = 1.04673e-07, Final residual = 7.18377e-09, No Iterations 5
ExecutionTime = 7.17 s  ClockTime = 7 s

scalarTransport execute: age
smoothSolver:  Solving for age, Initial residual = 0.000333718, Final residual = 3.23741e-05, No Iterations 14

Time = 606

smoothSolver:  Solving for Ux, Initial residual = 6.59056e-07, Final residual = 4.18032e-08, No Iterations 5
smoothSolver:  Solving for Uy, Initial residual = 4.7713e-07, Final residual = 4.02346e-08, No Iterations 5
GAMG:  Solving for p, Initial residual = 1.39423e-06, Final residual = 1.28285e-07, No Iterations 2
time step continuity errors : sum local = 3.02733e-07, global = 1.51506e-08, cumulative = 0.0167044
smoothSolver:  Solving for omega, Initial residual = 7.40282e-08, Final residual = 7.79967e-09, No Iterations 3
smoothSolver:  Solving for k, Initial residual = 1.04153e-07, Final residual = 7.08727e-09, No Iterations 5
ExecutionTime = 7.18 s  ClockTime = 7 s

scalarTransport execute: age
smoothSolver:  Solving for age, Initial residual = 0.000333138, Final residual = 3.23189e-05, No Iterations 14

Time = 607

smoothSolver:  Solving for Ux, Initial residual = 6.59868e-07, Final residual = 4.28857e-08, No Iterations 5
smoothSolver:  Solving for Uy, Initial residual = 4.65346e-07, Final residual = 3.86583e-08, No Iterations 5
GAMG:  Solving for p, Initial residual = 1.38605e-06, Final residual = 8.73905e-08, No Iterations 3
time step continuity errors : sum local = 2.06229e-07, global = 7.80166e-09, cumulative = 0.0167044
smoothSolver:  Solving for omega, Initial residual = 7.25787e-08, Final residual = 7.48901e-09, No Iterations 3
smoothSolver:  Solving for k, Initial residual = 1.00545e-07, Final residual = 6.90563e-09, No Iterations 5
ExecutionTime = 7.19 s  ClockTime = 7 s

scalarTransport execute: age
smoothSolver:  Solving for age, Initial residual = 0.00033255, Final residual = 3.22602e-05, No Iterations 14

Time = 608

smoothSolver:  Solving for Ux, Initial residual = 6.30548e-07, Final residual = 3.9967e-08, No Iterations 5
smoothSolver:  Solving for Uy, Initial residual = 4.53761e-07, Final residual = 3.82964e-08, No Iterations 5
GAMG:  Solving for p, Initial residual = 1.33115e-06, Final residual = 1.22004e-07, No Iterations 2
time step continuity errors : sum local = 2.87912e-07, global = 1.41543e-08, cumulative = 0.0167044
smoothSolver:  Solving for omega, Initial residual = 7.06714e-08, Final residual = 7.48359e-09, No Iterations 3
smoothSolver:  Solving for k, Initial residual = 1.00071e-07, Final residual = 6.81286e-09, No Iterations 5
ExecutionTime = 7.2 s  ClockTime = 7 s

scalarTransport execute: age
smoothSolver:  Solving for age, Initial residual = 0.000331973, Final residual = 3.22053e-05, No Iterations 14

Time = 609

smoothSolver:  Solving for Ux, Initial residual = 6.30209e-07, Final residual = 4.09575e-08, No Iterations 5
smoothSolver:  Solving for Uy, Initial residual = 4.44488e-07, Final residual = 3.69747e-08, No Iterations 5
GAMG:  Solving for p, Initial residual = 1.32348e-06, Final residual = 8.32365e-08, No Iterations 3
time step continuity errors : sum local = 1.96426e-07, global = 7.30623e-09, cumulative = 0.0167044
smoothSolver:  Solving for omega, Initial residual = 6.94124e-08, Final residual = 7.19259e-09, No Iterations 3
smoothSolver:  Solving for k, Initial residual = 9.67229e-08, Final residual = 6.63837e-09, No Iterations 5
ExecutionTime = 7.21 s  ClockTime = 7 s

scalarTransport execute: age
smoothSolver:  Solving for age, Initial residual = 0.000331389, Final residual = 3.21471e-05, No Iterations 14

Time = 610

smoothSolver:  Solving for Ux, Initial residual = 6.02204e-07, Final residual = 3.82114e-08, No Iterations 5
smoothSolver:  Solving for Uy, Initial residual = 4.35228e-07, Final residual = 3.6771e-08, No Iterations 5
GAMG:  Solving for p, Initial residual = 1.27304e-06, Final residual = 1.16299e-07, No Iterations 2
time step continuity errors : sum local = 2.74448e-07, global = 1.33855e-08, cumulative = 0.0167044
smoothSolver:  Solving for omega, Initial residual = 6.77076e-08, Final residual = 7.19196e-09, No Iterations 3
smoothSolver:  Solving for k, Initial residual = 9.6244e-08, Final residual = 6.54887e-09, No Iterations 5
ExecutionTime = 7.22 s  ClockTime = 7 s

scalarTransport execute: age
smoothSolver:  Solving for age, Initial residual = 0.000330815, Final residual = 3.20925e-05, No Iterations 14

Time = 611

smoothSolver:  Solving for Ux, Initial residual = 6.02441e-07, Final residual = 3.91798e-08, No Iterations 5
smoothSolver:  Solving for Uy, Initial residual = 4.25739e-07, Final residual = 3.5432e-08, No Iterations 5
GAMG:  Solving for p, Initial residual = 1.26646e-06, Final residual = 7.96496e-08, No Iterations 3
time step continuity errors : sum local = 1.87962e-07, global = 6.99085e-09, cumulative = 0.0167044
smoothSolver:  Solving for omega, Initial residual = 6.64815e-08, Final residual = 6.91084e-09, No Iterations 3
smoothSolver:  Solving for k, Initial residual = 9.30068e-08, Final residual = 6.38059e-09, No Iterations 5
ExecutionTime = 7.24 s  ClockTime = 7 s

scalarTransport execute: age
smoothSolver:  Solving for age, Initial residual = 0.000330236, Final residual = 3.20349e-05, No Iterations 14

Time = 612

smoothSolver:  Solving for Ux, Initial residual = 5.759e-07, Final residual = 3.65525e-08, No Iterations 5
smoothSolver:  Solving for Uy, Initial residual = 4.16493e-07, Final residual = 3.52011e-08, No Iterations 5
GAMG:  Solving for p, Initial residual = 1.22023e-06, Final residual = 1.11276e-07, No Iterations 2
time step continuity errors : sum local = 2.62596e-07, global = 1.27619e-08, cumulative = 0.0167045
smoothSolver:  Solving for omega, Initial residual = 6.48782e-08, Final residual = 6.91398e-09, No Iterations 3
smoothSolver:  Solving for k, Initial residual = 9.25182e-08, Final residual = 6.29425e-09, No Iterations 5
ExecutionTime = 7.25 s  ClockTime = 7 s

scalarTransport execute: age
smoothSolver:  Solving for age, Initial residual = 0.000329666, Final residual = 3.19807e-05, No Iterations 14

Time = 613

smoothSolver:  Solving for Ux, Initial residual = 5.76137e-07, Final residual = 3.74834e-08, No Iterations 5
smoothSolver:  Solving for Uy, Initial residual = 4.0692e-07, Final residual = 3.38801e-08, No Iterations 5
GAMG:  Solving for p, Initial residual = 1.21264e-06, Final residual = 7.65427e-08, No Iterations 3
time step continuity errors : sum local = 1.8063e-07, global = 6.61824e-09, cumulative = 0.0167045
smoothSolver:  Solving for omega, Initial residual = 6.3723e-08, Final residual = 6.64039e-09, No Iterations 3
smoothSolver:  Solving for k, Initial residual = 8.93999e-08, Final residual = 6.13204e-09, No Iterations 5
ExecutionTime = 7.26 s  ClockTime = 7 s

scalarTransport execute: age
smoothSolver:  Solving for age, Initial residual = 0.000329091, Final residual = 3.19237e-05, No Iterations 14

Time = 614

smoothSolver:  Solving for Ux, Initial residual = 5.50456e-07, Final residual = 3.49402e-08, No Iterations 5
smoothSolver:  Solving for Uy, Initial residual = 3.98026e-07, Final residual = 3.36726e-08, No Iterations 5
GAMG:  Solving for p, Initial residual = 1.16952e-06, Final residual = 1.06355e-07, No Iterations 2
time step continuity errors : sum local = 2.50982e-07, global = 1.21103e-08, cumulative = 0.0167045
smoothSolver:  Solving for omega, Initial residual = 6.22e-08, Final residual = 6.64635e-09, No Iterations 3
smoothSolver:  Solving for k, Initial residual = 8.89187e-08, Final residual = 9.97257e-09, No Iterations 4
ExecutionTime = 7.27 s  ClockTime = 7 s

scalarTransport execute: age
smoothSolver:  Solving for age, Initial residual = 0.000328524, Final residual = 3.18699e-05, No Iterations 14

Time = 615

smoothSolver:  Solving for Ux, Initial residual = 5.50907e-07, Final residual = 3.58663e-08, No Iterations 5
smoothSolver:  Solving for Uy, Initial residual = 3.88636e-07, Final residual = 3.237e-08, No Iterations 5
GAMG:  Solving for p, Initial residual = 1.16008e-06, Final residual = 7.33236e-08, No Iterations 3
time step continuity errors : sum local = 1.73034e-07, global = 6.30483e-09, cumulative = 0.0167045
smoothSolver:  Solving for omega, Initial residual = 6.09504e-08, Final residual = 6.36489e-09, No Iterations 3
smoothSolver:  Solving for k, Initial residual = 8.62052e-08, Final residual = 9.74966e-09, No Iterations 4
ExecutionTime = 7.28 s  ClockTime = 7 s

scalarTransport execute: age
smoothSolver:  Solving for age, Initial residual = 0.000327953, Final residual = 3.18133e-05, No Iterations 14

Time = 616

smoothSolver:  Solving for Ux, Initial residual = 5.26353e-07, Final residual = 3.34391e-08, No Iterations 5
smoothSolver:  Solving for Uy, Initial residual = 3.80182e-07, Final residual = 3.21967e-08, No Iterations 5
GAMG:  Solving for p, Initial residual = 1.11912e-06, Final residual = 1.01583e-07, No Iterations 2
time step continuity errors : sum local = 2.39721e-07, global = 1.14934e-08, cumulative = 0.0167045
smoothSolver:  Solving for omega, Initial residual = 5.94053e-08, Final residual = 6.36444e-09, No Iterations 3
smoothSolver:  Solving for k, Initial residual = 8.59828e-08, Final residual = 9.65518e-09, No Iterations 4
ExecutionTime = 7.29 s  ClockTime = 7 s

scalarTransport execute: age
smoothSolver:  Solving for age, Initial residual = 0.00032739, Final residual = 3.17598e-05, No Iterations 14

Time = 617

smoothSolver:  Solving for Ux, Initial residual = 5.26724e-07, Final residual = 3.43231e-08, No Iterations 5
smoothSolver:  Solving for Uy, Initial residual = 3.71402e-07, Final residual = 3.09639e-08, No Iterations 5
GAMG:  Solving for p, Initial residual = 1.10952e-06, Final residual = 7.02089e-08, No Iterations 3
time step continuity errors : sum local = 1.65684e-07, global = 6.02486e-09, cumulative = 0.0167045
smoothSolver:  Solving for omega, Initial residual = 5.83124e-08, Final residual = 6.09949e-09, No Iterations 3
smoothSolver:  Solving for k, Initial residual = 8.33423e-08, Final residual = 9.43324e-09, No Iterations 4
ExecutionTime = 7.3 s  ClockTime = 7 s

scalarTransport execute: age
smoothSolver:  Solving for age, Initial residual = 0.000326822, Final residual = 3.17037e-05, No Iterations 14

Time = 618

smoothSolver:  Solving for Ux, Initial residual = 5.03022e-07, Final residual = 3.19725e-08, No Iterations 5
smoothSolver:  Solving for Uy, Initial residual = 3.63441e-07, Final residual = 3.08239e-08, No Iterations 5
GAMG:  Solving for p, Initial residual = 1.0712e-06, Final residual = 9.70868e-08, No Iterations 2
time step continuity errors : sum local = 2.29112e-07, global = 1.09101e-08, cumulative = 0.0167045
smoothSolver:  Solving for omega, Initial residual = 5.68521e-08, Final residual = 6.10366e-09, No Iterations 3
smoothSolver:  Solving for k, Initial residual = 8.30781e-08, Final residual = 9.33468e-09, No Iterations 4
ExecutionTime = 7.31 s  ClockTime = 7 s

scalarTransport execute: age
smoothSolver:  Solving for age, Initial residual = 0.000326262, Final residual = 3.16505e-05, No Iterations 14

Time = 619

smoothSolver:  Solving for Ux, Initial residual = 5.034e-07, Final residual = 3.28243e-08, No Iterations 5
smoothSolver:  Solving for Uy, Initial residual = 3.55195e-07, Final residual = 2.96467e-08, No Iterations 5
GAMG:  Solving for p, Initial residual = 1.06136e-06, Final residual = 6.71958e-08, No Iterations 3
time step continuity errors : sum local = 1.58573e-07, global = 5.77568e-09, cumulative = 0.0167045
smoothSolver:  Solving for omega, Initial residual = 5.58252e-08, Final residual = 5.84852e-09, No Iterations 3
smoothSolver:  Solving for k, Initial residual = 8.05085e-08, Final residual = 9.11376e-09, No Iterations 4
ExecutionTime = 7.33 s  ClockTime = 7 s

scalarTransport execute: age
smoothSolver:  Solving for age, Initial residual = 0.000325698, Final residual = 3.15947e-05, No Iterations 14

Time = 620

smoothSolver:  Solving for Ux, Initial residual = 4.80626e-07, Final residual = 3.05535e-08, No Iterations 5
smoothSolver:  Solving for Uy, Initial residual = 3.47528e-07, Final residual = 2.9518e-08, No Iterations 5
GAMG:  Solving for p, Initial residual = 1.02528e-06, Final residual = 9.2857e-08, No Iterations 2
time step continuity errors : sum local = 2.1913e-07, global = 1.03541e-08, cumulative = 0.0167045
smoothSolver:  Solving for omega, Initial residual = 5.44205e-08, Final residual = 5.85398e-09, No Iterations 3
smoothSolver:  Solving for k, Initial residual = 8.02031e-08, Final residual = 9.01221e-09, No Iterations 4
ExecutionTime = 7.34 s  ClockTime = 7 s

scalarTransport execute: age
smoothSolver:  Solving for age, Initial residual = 0.00032514, Final residual = 3.15416e-05, No Iterations 14

Time = 621

smoothSolver:  Solving for Ux, Initial residual = 4.80988e-07, Final residual = 3.13777e-08, No Iterations 5
smoothSolver:  Solving for Uy, Initial residual = 3.39829e-07, Final residual = 2.84026e-08, No Iterations 5
GAMG:  Solving for p, Initial residual = 1.01537e-06, Final residual = 6.42875e-08, No Iterations 3
time step continuity errors : sum local = 1.5171e-07, global = 5.54387e-09, cumulative = 0.0167045
smoothSolver:  Solving for omega, Initial residual = 5.34508e-08, Final residual = 5.60835e-09, No Iterations 3
smoothSolver:  Solving for k, Initial residual = 7.77111e-08, Final residual = 8.79402e-09, No Iterations 4
ExecutionTime = 7.35 s  ClockTime = 7 s

scalarTransport execute: age
smoothSolver:  Solving for age, Initial residual = 0.000324579, Final residual = 3.14861e-05, No Iterations 14

Time = 622

smoothSolver:  Solving for Ux, Initial residual = 4.59174e-07, Final residual = 2.91878e-08, No Iterations 5
smoothSolver:  Solving for Uy, Initial residual = 3.3242e-07, Final residual = 2.82776e-08, No Iterations 5
GAMG:  Solving for p, Initial residual = 9.81113e-07, Final residual = 8.88261e-08, No Iterations 2
time step continuity errors : sum local = 2.09618e-07, global = 9.81942e-09, cumulative = 0.0167045
smoothSolver:  Solving for omega, Initial residual = 5.20955e-08, Final residual = 5.61458e-09, No Iterations 3
smoothSolver:  Solving for k, Initial residual = 7.73692e-08, Final residual = 8.69154e-09, No Iterations 4
ExecutionTime = 7.36 s  ClockTime = 7 s


SIMPLE solution converged in 622 iterations

scalarTransport execute: age
smoothSolver:  Solving for age, Initial residual = 0.000324025, Final residual = 3.14333e-05, No Iterations 14

End

