/*---------------------------------------------------------------------------*\
| =========                 |                                                 |
| \\      /  F ield         | OpenFOAM: The Open Source CFD Toolbox           |
|  \\    /   O peration     | Version:  v2012                                 |
|   \\  /    A nd           | Website:  www.openfoam.com                      |
|    \\/     M anipulation  |                                                 |
\*---------------------------------------------------------------------------*/
Build  : _7bdb509494-20201222 OPENFOAM=2012
Arch   : "LSB;label=32;scalar=64"
Exec   : simpleFoam
Date   : Feb 23 2023
Time   : 14:04:41
Host   : johnsDesktop
PID    : 4648
I/O    : uncollated
Case   : /home/john/of_runs/cases/dbl_0_17_2-00720_9
nProcs : 1
trapFpe: Floating point exception trapping enabled (FOAM_SIGFPE).
fileModificationChecking : Monitoring run-time modified files using timeStampMaster (fileModificationSkew 5, maxFileModificationPolls 20)
allowSystemOperations : Allowing user-supplied system call operations

// * * * * * * * * * * * * * * * * * * * * * * * * * * * * * * * * * * * * * //
Create time

Create mesh for time = 0


SIMPLE: convergence criteria
    field p	 tolerance 1e-06
    field U	 tolerance 1e-06
    field "(k|epsilon|omega|f|v2|age)"	 tolerance 1e-05

Reading field p

Reading field U

Reading/calculating face flux field phi

Selecting incompressible transport model Newtonian
Selecting turbulence model type RAS
Selecting RAS turbulence model kOmegaSST
Selecting patchDistMethod meshWave
RAS
{
    RASModel        kOmegaSST;
    turbulence      on;
    printCoeffs     on;
    alphaK1         0.85;
    alphaK2         1;
    alphaOmega1     0.5;
    alphaOmega2     0.856;
    gamma1          0.555556;
    gamma2          0.44;
    beta1           0.075;
    beta2           0.0828;
    betaStar        0.09;
    a1              0.31;
    b1              1;
    c1              10;
    F3              false;
    decayControl    false;
    kInf            0;
    omegaInf        0;
}

No MRF models present

No finite volume options present

Starting time loop

Selecting finite volume options type scalarSemiImplicitSource
    Source: unitySource
    - selecting all cells
    - selected 6598 cell(s) with volume 0.03183
Time = 1

smoothSolver:  Solving for Ux, Initial residual = 0, Final residual = 0, No Iterations 0
smoothSolver:  Solving for Uy, Initial residual = 1, Final residual = 0.0687864, No Iterations 2
GAMG:  Solving for p, Initial residual = 1, Final residual = 0.0899858, No Iterations 6
time step continuity errors : sum local = 0.00565415, global = -0.000889155, cumulative = -0.000889155
smoothSolver:  Solving for omega, Initial residual = 0.277348, Final residual = 0.013499, No Iterations 3
smoothSolver:  Solving for k, Initial residual = 1, Final residual = 0.0834342, No Iterations 3
ExecutionTime = 0.05 s  ClockTime = 0 s

scalarTransport execute: age
smoothSolver:  Solving for age, Initial residual = 1, Final residual = 0.0908097, No Iterations 5

Time = 2

smoothSolver:  Solving for Ux, Initial residual = 0.598629, Final residual = 0.0507292, No Iterations 6
smoothSolver:  Solving for Uy, Initial residual = 0.279448, Final residual = 0.0276591, No Iterations 5
GAMG:  Solving for p, Initial residual = 0.0485232, Final residual = 0.00185029, No Iterations 4
time step continuity errors : sum local = 0.0214251, global = 0.0018251, cumulative = 0.000935949
smoothSolver:  Solving for omega, Initial residual = 0.266167, Final residual = 0.0264209, No Iterations 3
smoothSolver:  Solving for k, Initial residual = 0.620829, Final residual = 0.0580273, No Iterations 4
ExecutionTime = 0.06 s  ClockTime = 0 s

scalarTransport execute: age
smoothSolver:  Solving for age, Initial residual = 0.58713, Final residual = 0.0529457, No Iterations 7

Time = 3

smoothSolver:  Solving for Ux, Initial residual = 0.22849, Final residual = 0.0221603, No Iterations 5
smoothSolver:  Solving for Uy, Initial residual = 0.101078, Final residual = 0.00853093, No Iterations 5
GAMG:  Solving for p, Initial residual = 0.0554484, Final residual = 0.00452654, No Iterations 3
time step continuity errors : sum local = 0.0213919, global = 0.00208205, cumulative = 0.003018
smoothSolver:  Solving for omega, Initial residual = 0.267973, Final residual = 0.0258074, No Iterations 4
smoothSolver:  Solving for k, Initial residual = 0.52456, Final residual = 0.0390394, No Iterations 5
ExecutionTime = 0.08 s  ClockTime = 0 s

scalarTransport execute: age
smoothSolver:  Solving for age, Initial residual = 0.363488, Final residual = 0.0352738, No Iterations 8

Time = 4

smoothSolver:  Solving for Ux, Initial residual = 0.114006, Final residual = 0.00980296, No Iterations 4
smoothSolver:  Solving for Uy, Initial residual = 0.0485974, Final residual = 0.00334984, No Iterations 5
GAMG:  Solving for p, Initial residual = 0.0745461, Final residual = 0.00381196, No Iterations 3
time step continuity errors : sum local = 0.0108099, global = 0.000520646, cumulative = 0.00353864
smoothSolver:  Solving for omega, Initial residual = 0.156547, Final residual = 0.0108424, No Iterations 5
smoothSolver:  Solving for k, Initial residual = 0.454013, Final residual = 0.0381049, No Iterations 5
ExecutionTime = 0.08 s  ClockTime = 0 s

scalarTransport execute: age
smoothSolver:  Solving for age, Initial residual = 0.260046, Final residual = 0.0243461, No Iterations 8

Time = 5

smoothSolver:  Solving for Ux, Initial residual = 0.0730896, Final residual = 0.00586819, No Iterations 5
smoothSolver:  Solving for Uy, Initial residual = 0.0314043, Final residual = 0.00205387, No Iterations 5
GAMG:  Solving for p, Initial residual = 0.072687, Final residual = 0.00308963, No Iterations 2
time step continuity errors : sum local = 0.00745182, global = 0.000357823, cumulative = 0.00389647
smoothSolver:  Solving for omega, Initial residual = 0.10766, Final residual = 0.00821067, No Iterations 5
smoothSolver:  Solving for k, Initial residual = 0.367138, Final residual = 0.0333062, No Iterations 5
ExecutionTime = 0.09 s  ClockTime = 0 s

scalarTransport execute: age
smoothSolver:  Solving for age, Initial residual = 0.197271, Final residual = 0.0189815, No Iterations 9

Time = 6

smoothSolver:  Solving for Ux, Initial residual = 0.0546844, Final residual = 0.00363846, No Iterations 6
smoothSolver:  Solving for Uy, Initial residual = 0.0252924, Final residual = 0.00184485, No Iterations 5
GAMG:  Solving for p, Initial residual = 0.0577045, Final residual = 0.00333593, No Iterations 2
time step continuity errors : sum local = 0.0085434, global = 0.000175879, cumulative = 0.00407234
smoothSolver:  Solving for omega, Initial residual = 0.0843064, Final residual = 0.00686059, No Iterations 5
smoothSolver:  Solving for k, Initial residual = 0.292505, Final residual = 0.0281429, No Iterations 5
ExecutionTime = 0.11 s  ClockTime = 0 s

scalarTransport execute: age
smoothSolver:  Solving for age, Initial residual = 0.170966, Final residual = 0.0154116, No Iterations 10

Time = 7

smoothSolver:  Solving for Ux, Initial residual = 0.0471038, Final residual = 0.00317953, No Iterations 6
smoothSolver:  Solving for Uy, Initial residual = 0.0221202, Final residual = 0.00171807, No Iterations 5
GAMG:  Solving for p, Initial residual = 0.0480376, Final residual = 0.00386627, No Iterations 2
time step continuity errors : sum local = 0.0100496, global = -0.000389558, cumulative = 0.00368279
smoothSolver:  Solving for omega, Initial residual = 0.0650559, Final residual = 0.00564534, No Iterations 5
smoothSolver:  Solving for k, Initial residual = 0.241334, Final residual = 0.0153318, No Iterations 6
ExecutionTime = 0.12 s  ClockTime = 0 s

scalarTransport execute: age
smoothSolver:  Solving for age, Initial residual = 0.139855, Final residual = 0.0123346, No Iterations 11

Time = 8

smoothSolver:  Solving for Ux, Initial residual = 0.0390609, Final residual = 0.00372137, No Iterations 5
smoothSolver:  Solving for Uy, Initial residual = 0.020174, Final residual = 0.00166012, No Iterations 5
GAMG:  Solving for p, Initial residual = 0.0399128, Final residual = 0.00305225, No Iterations 2
time step continuity errors : sum local = 0.00835569, global = -0.00068042, cumulative = 0.00300237
smoothSolver:  Solving for omega, Initial residual = 0.0522947, Final residual = 0.00470806, No Iterations 5
smoothSolver:  Solving for k, Initial residual = 0.205064, Final residual = 0.0135102, No Iterations 6
ExecutionTime = 0.13 s  ClockTime = 0 s

scalarTransport execute: age
smoothSolver:  Solving for age, Initial residual = 0.121255, Final residual = 0.0111997, No Iterations 11

Time = 9

smoothSolver:  Solving for Ux, Initial residual = 0.0350933, Final residual = 0.00331882, No Iterations 5
smoothSolver:  Solving for Uy, Initial residual = 0.0188268, Final residual = 0.00158351, No Iterations 5
GAMG:  Solving for p, Initial residual = 0.0338234, Final residual = 0.00197919, No Iterations 2
time step continuity errors : sum local = 0.00565369, global = -0.000569601, cumulative = 0.00243277
smoothSolver:  Solving for omega, Initial residual = 0.0431827, Final residual = 0.00400206, No Iterations 5
smoothSolver:  Solving for k, Initial residual = 0.177628, Final residual = 0.0120619, No Iterations 6
ExecutionTime = 0.14 s  ClockTime = 0 s

scalarTransport execute: age
smoothSolver:  Solving for age, Initial residual = 0.107248, Final residual = 0.0103251, No Iterations 11

Time = 10

smoothSolver:  Solving for Ux, Initial residual = 0.0338206, Final residual = 0.00333258, No Iterations 5
smoothSolver:  Solving for Uy, Initial residual = 0.0180286, Final residual = 0.0015379, No Iterations 5
GAMG:  Solving for p, Initial residual = 0.0290584, Final residual = 0.000817016, No Iterations 2
time step continuity errors : sum local = 0.00238845, global = -0.000512529, cumulative = 0.00192024
smoothSolver:  Solving for omega, Initial residual = 0.0360608, Final residual = 0.00343578, No Iterations 5
smoothSolver:  Solving for k, Initial residual = 0.156212, Final residual = 0.0108749, No Iterations 6
ExecutionTime = 0.16 s  ClockTime = 0 s

scalarTransport execute: age
smoothSolver:  Solving for age, Initial residual = 0.094863, Final residual = 0.0092759, No Iterations 11

Time = 11

smoothSolver:  Solving for Ux, Initial residual = 0.030933, Final residual = 0.0020475, No Iterations 6
smoothSolver:  Solving for Uy, Initial residual = 0.0173013, Final residual = 0.00154384, No Iterations 5
GAMG:  Solving for p, Initial residual = 0.025971, Final residual = 0.000861169, No Iterations 2
time step continuity errors : sum local = 0.00252341, global = -0.000413667, cumulative = 0.00150657
smoothSolver:  Solving for omega, Initial residual = 0.0304717, Final residual = 0.0029669, No Iterations 5
smoothSolver:  Solving for k, Initial residual = 0.139005, Final residual = 0.00987491, No Iterations 6
ExecutionTime = 0.17 s  ClockTime = 0 s

scalarTransport execute: age
smoothSolver:  Solving for age, Initial residual = 0.0831049, Final residual = 0.00712787, No Iterations 12

Time = 12

smoothSolver:  Solving for Ux, Initial residual = 0.0288487, Final residual = 0.00193804, No Iterations 6
smoothSolver:  Solving for Uy, Initial residual = 0.0168626, Final residual = 0.00155448, No Iterations 5
GAMG:  Solving for p, Initial residual = 0.0239318, Final residual = 0.000877467, No Iterations 2
time step continuity errors : sum local = 0.0025632, global = -0.000284584, cumulative = 0.00122199
smoothSolver:  Solving for omega, Initial residual = 0.0260926, Final residual = 0.00258342, No Iterations 5
smoothSolver:  Solving for k, Initial residual = 0.124996, Final residual = 0.00903098, No Iterations 6
ExecutionTime = 0.18 s  ClockTime = 0 s

scalarTransport execute: age
smoothSolver:  Solving for age, Initial residual = 0.0723176, Final residual = 0.00631384, No Iterations 12

Time = 13

smoothSolver:  Solving for Ux, Initial residual = 0.0273982, Final residual = 0.00185751, No Iterations 6
smoothSolver:  Solving for Uy, Initial residual = 0.0164934, Final residual = 0.00156174, No Iterations 5
GAMG:  Solving for p, Initial residual = 0.0223852, Final residual = 0.000847151, No Iterations 2
time step continuity errors : sum local = 0.0024631, global = -0.00013088, cumulative = 0.00109111
smoothSolver:  Solving for omega, Initial residual = 0.0225762, Final residual = 0.00144699, No Iterations 6
smoothSolver:  Solving for k, Initial residual = 0.113038, Final residual = 0.00828803, No Iterations 6
ExecutionTime = 0.19 s  ClockTime = 0 s

scalarTransport execute: age
smoothSolver:  Solving for age, Initial residual = 0.0631479, Final residual = 0.00560736, No Iterations 12

Time = 14

smoothSolver:  Solving for Ux, Initial residual = 0.0262135, Final residual = 0.00178709, No Iterations 6
smoothSolver:  Solving for Uy, Initial residual = 0.016159, Final residual = 0.00155768, No Iterations 5
GAMG:  Solving for p, Initial residual = 0.0213071, Final residual = 0.000813855, No Iterations 2
time step continuity errors : sum local = 0.0023525, global = 1.89417e-05, cumulative = 0.00111005
smoothSolver:  Solving for omega, Initial residual = 0.0195257, Final residual = 0.00127121, No Iterations 6
smoothSolver:  Solving for k, Initial residual = 0.102827, Final residual = 0.00763818, No Iterations 6
ExecutionTime = 0.21 s  ClockTime = 0 s

scalarTransport execute: age
smoothSolver:  Solving for age, Initial residual = 0.0548911, Final residual = 0.0049808, No Iterations 12

Time = 15

smoothSolver:  Solving for Ux, Initial residual = 0.0252494, Final residual = 0.00172531, No Iterations 6
smoothSolver:  Solving for Uy, Initial residual = 0.0158583, Final residual = 0.00154429, No Iterations 5
GAMG:  Solving for p, Initial residual = 0.0203752, Final residual = 0.000790571, No Iterations 2
time step continuity errors : sum local = 0.00227214, global = 0.000145576, cumulative = 0.00125562
smoothSolver:  Solving for omega, Initial residual = 0.0170515, Final residual = 0.00112445, No Iterations 6
smoothSolver:  Solving for k, Initial residual = 0.0942014, Final residual = 0.00707461, No Iterations 6
ExecutionTime = 0.22 s  ClockTime = 0 s

scalarTransport execute: age
smoothSolver:  Solving for age, Initial residual = 0.0477152, Final residual = 0.00439182, No Iterations 12

Time = 16

smoothSolver:  Solving for Ux, Initial residual = 0.0244028, Final residual = 0.00167304, No Iterations 6
smoothSolver:  Solving for Uy, Initial residual = 0.0155525, Final residual = 0.00152329, No Iterations 5
GAMG:  Solving for p, Initial residual = 0.0195716, Final residual = 0.000758927, No Iterations 2
time step continuity errors : sum local = 0.00216721, global = 0.000247795, cumulative = 0.00150342
smoothSolver:  Solving for omega, Initial residual = 0.0150308, Final residual = 0.0010012, No Iterations 6
smoothSolver:  Solving for k, Initial residual = 0.0868124, Final residual = 0.0065807, No Iterations 6
ExecutionTime = 0.23 s  ClockTime = 0 s

scalarTransport execute: age
smoothSolver:  Solving for age, Initial residual = 0.0413426, Final residual = 0.00382922, No Iterations 12

Time = 17

smoothSolver:  Solving for Ux, Initial residual = 0.0236877, Final residual = 0.00162889, No Iterations 6
smoothSolver:  Solving for Uy, Initial residual = 0.0152643, Final residual = 0.00149745, No Iterations 5
GAMG:  Solving for p, Initial residual = 0.0188742, Final residual = 0.000730334, No Iterations 2
time step continuity errors : sum local = 0.00207124, global = 0.00032361, cumulative = 0.00182703
smoothSolver:  Solving for omega, Initial residual = 0.0133814, Final residual = 0.000896588, No Iterations 6
smoothSolver:  Solving for k, Initial residual = 0.0804184, Final residual = 0.00614479, No Iterations 6
ExecutionTime = 0.25 s  ClockTime = 0 s

scalarTransport execute: age
smoothSolver:  Solving for age, Initial residual = 0.0359865, Final residual = 0.00330982, No Iterations 12

Time = 18

smoothSolver:  Solving for Ux, Initial residual = 0.0230502, Final residual = 0.00159146, No Iterations 6
smoothSolver:  Solving for Uy, Initial residual = 0.0149482, Final residual = 0.00146821, No Iterations 5
GAMG:  Solving for p, Initial residual = 0.0182041, Final residual = 0.000712968, No Iterations 2
time step continuity errors : sum local = 0.00200786, global = 0.000372229, cumulative = 0.00219926
smoothSolver:  Solving for omega, Initial residual = 0.0119786, Final residual = 0.000807568, No Iterations 6
smoothSolver:  Solving for k, Initial residual = 0.0748214, Final residual = 0.00575674, No Iterations 6
ExecutionTime = 0.26 s  ClockTime = 0 s

scalarTransport execute: age
smoothSolver:  Solving for age, Initial residual = 0.0315645, Final residual = 0.00285086, No Iterations 12

Time = 19

smoothSolver:  Solving for Ux, Initial residual = 0.0224721, Final residual = 0.00155902, No Iterations 6
smoothSolver:  Solving for Uy, Initial residual = 0.0146169, Final residual = 0.00143572, No Iterations 5
GAMG:  Solving for p, Initial residual = 0.017635, Final residual = 0.000696599, No Iterations 2
time step continuity errors : sum local = 0.00194805, global = 0.000395039, cumulative = 0.0025943
smoothSolver:  Solving for omega, Initial residual = 0.0107867, Final residual = 0.00073109, No Iterations 6
smoothSolver:  Solving for k, Initial residual = 0.06988, Final residual = 0.00540892, No Iterations 6
ExecutionTime = 0.27 s  ClockTime = 0 s

scalarTransport execute: age
smoothSolver:  Solving for age, Initial residual = 0.0278306, Final residual = 0.00245158, No Iterations 12

Time = 20

smoothSolver:  Solving for Ux, Initial residual = 0.0219318, Final residual = 0.00152987, No Iterations 6
smoothSolver:  Solving for Uy, Initial residual = 0.0142454, Final residual = 0.00140094, No Iterations 5
GAMG:  Solving for p, Initial residual = 0.0169566, Final residual = 0.000673953, No Iterations 2
time step continuity errors : sum local = 0.00187227, global = 0.000394689, cumulative = 0.00298899
smoothSolver:  Solving for omega, Initial residual = 0.0097659, Final residual = 0.000664782, No Iterations 6
smoothSolver:  Solving for k, Initial residual = 0.065504, Final residual = 0.00509672, No Iterations 6
ExecutionTime = 0.28 s  ClockTime = 0 s

scalarTransport execute: age
smoothSolver:  Solving for age, Initial residual = 0.0247339, Final residual = 0.00210033, No Iterations 12

Time = 21

smoothSolver:  Solving for Ux, Initial residual = 0.0214784, Final residual = 0.00150421, No Iterations 6
smoothSolver:  Solving for Uy, Initial residual = 0.0138305, Final residual = 0.00136584, No Iterations 5
GAMG:  Solving for p, Initial residual = 0.0162593, Final residual = 0.000645455, No Iterations 2
time step continuity errors : sum local = 0.00178255, global = 0.000378228, cumulative = 0.00336721
smoothSolver:  Solving for omega, Initial residual = 0.00888999, Final residual = 0.000607019, No Iterations 6
smoothSolver:  Solving for k, Initial residual = 0.0616013, Final residual = 0.00481508, No Iterations 6
ExecutionTime = 0.3 s  ClockTime = 0 s

scalarTransport execute: age
smoothSolver:  Solving for age, Initial residual = 0.0221492, Final residual = 0.00211748, No Iterations 11

Time = 22

smoothSolver:  Solving for Ux, Initial residual = 0.0210895, Final residual = 0.00148113, No Iterations 6
smoothSolver:  Solving for Uy, Initial residual = 0.0134212, Final residual = 0.00133152, No Iterations 5
GAMG:  Solving for p, Initial residual = 0.0154857, Final residual = 0.000613668, No Iterations 2
time step continuity errors : sum local = 0.00168639, global = 0.000352823, cumulative = 0.00372004
smoothSolver:  Solving for omega, Initial residual = 0.00812715, Final residual = 0.000556443, No Iterations 6
smoothSolver:  Solving for k, Initial residual = 0.0580966, Final residual = 0.00455942, No Iterations 6
ExecutionTime = 0.31 s  ClockTime = 0 s

scalarTransport execute: age
smoothSolver:  Solving for age, Initial residual = 0.0200191, Final residual = 0.00182266, No Iterations 11

Time = 23

smoothSolver:  Solving for Ux, Initial residual = 0.0207067, Final residual = 0.00146171, No Iterations 6
smoothSolver:  Solving for Uy, Initial residual = 0.0130235, Final residual = 0.00129809, No Iterations 5
GAMG:  Solving for p, Initial residual = 0.0146681, Final residual = 0.00058198, No Iterations 2
time step continuity errors : sum local = 0.00159226, global = 0.000323274, cumulative = 0.00404331
smoothSolver:  Solving for omega, Initial residual = 0.00745901, Final residual = 0.000511845, No Iterations 6
smoothSolver:  Solving for k, Initial residual = 0.0549335, Final residual = 0.00432657, No Iterations 6
ExecutionTime = 0.32 s  ClockTime = 0 s

scalarTransport execute: age
smoothSolver:  Solving for age, Initial residual = 0.0182715, Final residual = 0.00155666, No Iterations 11

Time = 24

smoothSolver:  Solving for Ux, Initial residual = 0.0203809, Final residual = 0.00144573, No Iterations 6
smoothSolver:  Solving for Uy, Initial residual = 0.012644, Final residual = 0.000826548, No Iterations 6
GAMG:  Solving for p, Initial residual = 0.0139172, Final residual = 0.00055719, No Iterations 2
time step continuity errors : sum local = 0.00151771, global = 0.000294115, cumulative = 0.00433742
smoothSolver:  Solving for omega, Initial residual = 0.00686876, Final residual = 0.000472223, No Iterations 6
smoothSolver:  Solving for k, Initial residual = 0.0520631, Final residual = 0.00411334, No Iterations 6
ExecutionTime = 0.34 s  ClockTime = 0 s

scalarTransport execute: age
smoothSolver:  Solving for age, Initial residual = 0.0167619, Final residual = 0.00158366, No Iterations 10

Time = 25

smoothSolver:  Solving for Ux, Initial residual = 0.0201202, Final residual = 0.00143638, No Iterations 6
smoothSolver:  Solving for Uy, Initial residual = 0.0121948, Final residual = 0.000796459, No Iterations 6
GAMG:  Solving for p, Initial residual = 0.0134234, Final residual = 0.000531945, No Iterations 2
time step continuity errors : sum local = 0.00144147, global = 0.000266003, cumulative = 0.00460343
smoothSolver:  Solving for omega, Initial residual = 0.00635064, Final residual = 0.000436963, No Iterations 6
smoothSolver:  Solving for k, Initial residual = 0.0494505, Final residual = 0.00391767, No Iterations 6
ExecutionTime = 0.35 s  ClockTime = 0 s

scalarTransport execute: age
smoothSolver:  Solving for age, Initial residual = 0.0156109, Final residual = 0.00138282, No Iterations 10

Time = 26

smoothSolver:  Solving for Ux, Initial residual = 0.0198802, Final residual = 0.00142893, No Iterations 6
smoothSolver:  Solving for Uy, Initial residual = 0.0118145, Final residual = 0.00117753, No Iterations 5
GAMG:  Solving for p, Initial residual = 0.0133213, Final residual = 0.000508053, No Iterations 2
time step continuity errors : sum local = 0.00137157, global = 0.000240945, cumulative = 0.00484437
smoothSolver:  Solving for omega, Initial residual = 0.00589511, Final residual = 0.000405607, No Iterations 6
smoothSolver:  Solving for k, Initial residual = 0.0470604, Final residual = 0.0037373, No Iterations 6
ExecutionTime = 0.36 s  ClockTime = 0 s

scalarTransport execute: age
smoothSolver:  Solving for age, Initial residual = 0.0147819, Final residual = 0.00147725, No Iterations 9

Time = 27

smoothSolver:  Solving for Ux, Initial residual = 0.0196515, Final residual = 0.00142089, No Iterations 6
smoothSolver:  Solving for Uy, Initial residual = 0.0115852, Final residual = 0.0011527, No Iterations 5
GAMG:  Solving for p, Initial residual = 0.0133327, Final residual = 0.000491279, No Iterations 2
time step continuity errors : sum local = 0.00132379, global = 0.000218981, cumulative = 0.00506335
smoothSolver:  Solving for omega, Initial residual = 0.00549211, Final residual = 0.000377509, No Iterations 6
smoothSolver:  Solving for k, Initial residual = 0.0448505, Final residual = 0.00356953, No Iterations 6
ExecutionTime = 0.37 s  ClockTime = 0 s

scalarTransport execute: age
smoothSolver:  Solving for age, Initial residual = 0.014358, Final residual = 0.00137765, No Iterations 9

Time = 28

smoothSolver:  Solving for Ux, Initial residual = 0.0195269, Final residual = 0.00141607, No Iterations 6
smoothSolver:  Solving for Uy, Initial residual = 0.0113625, Final residual = 0.00112708, No Iterations 5
GAMG:  Solving for p, Initial residual = 0.01332, Final residual = 0.00048865, No Iterations 2
time step continuity errors : sum local = 0.00130724, global = 0.000199844, cumulative = 0.0052632
smoothSolver:  Solving for omega, Initial residual = 0.00513262, Final residual = 0.00035206, No Iterations 6
smoothSolver:  Solving for k, Initial residual = 0.0428082, Final residual = 0.00341382, No Iterations 6
ExecutionTime = 0.39 s  ClockTime = 0 s

scalarTransport execute: age
smoothSolver:  Solving for age, Initial residual = 0.0137899, Final residual = 0.0013159, No Iterations 9

Time = 29

smoothSolver:  Solving for Ux, Initial residual = 0.0194815, Final residual = 0.00141334, No Iterations 6
smoothSolver:  Solving for Uy, Initial residual = 0.0111041, Final residual = 0.00109805, No Iterations 5
GAMG:  Solving for p, Initial residual = 0.013334, Final residual = 0.000494782, No Iterations 2
time step continuity errors : sum local = 0.00131682, global = 0.00018508, cumulative = 0.00544828
smoothSolver:  Solving for omega, Initial residual = 0.00480701, Final residual = 0.000328951, No Iterations 6
smoothSolver:  Solving for k, Initial residual = 0.0409137, Final residual = 0.00326879, No Iterations 6
ExecutionTime = 0.4 s  ClockTime = 0 s

scalarTransport execute: age
smoothSolver:  Solving for age, Initial residual = 0.0135066, Final residual = 0.00130396, No Iterations 9

Time = 30

smoothSolver:  Solving for Ux, Initial residual = 0.0194864, Final residual = 0.00141242, No Iterations 6
smoothSolver:  Solving for Uy, Initial residual = 0.0108063, Final residual = 0.00106444, No Iterations 5
GAMG:  Solving for p, Initial residual = 0.0132225, Final residual = 0.000494375, No Iterations 2
time step continuity errors : sum local = 0.00131047, global = 0.000174115, cumulative = 0.00562239
smoothSolver:  Solving for omega, Initial residual = 0.00451233, Final residual = 0.000307905, No Iterations 6
smoothSolver:  Solving for k, Initial residual = 0.0391492, Final residual = 0.00313319, No Iterations 6
ExecutionTime = 0.41 s  ClockTime = 0 s

scalarTransport execute: age
smoothSolver:  Solving for age, Initial residual = 0.0133659, Final residual = 0.00132348, No Iterations 9

Time = 31

smoothSolver:  Solving for Ux, Initial residual = 0.0195131, Final residual = 0.00141219, No Iterations 6
smoothSolver:  Solving for Uy, Initial residual = 0.0104628, Final residual = 0.00102724, No Iterations 5
GAMG:  Solving for p, Initial residual = 0.0129417, Final residual = 0.000487818, No Iterations 2
time step continuity errors : sum local = 0.00128981, global = 0.000165812, cumulative = 0.00578821
smoothSolver:  Solving for omega, Initial residual = 0.00424231, Final residual = 0.000288682, No Iterations 6
smoothSolver:  Solving for k, Initial residual = 0.0375029, Final residual = 0.00300642, No Iterations 6
ExecutionTime = 0.42 s  ClockTime = 0 s

scalarTransport execute: age
smoothSolver:  Solving for age, Initial residual = 0.0134743, Final residual = 0.00118244, No Iterations 10

Time = 32

smoothSolver:  Solving for Ux, Initial residual = 0.0195632, Final residual = 0.00141309, No Iterations 6
smoothSolver:  Solving for Uy, Initial residual = 0.0100826, Final residual = 0.000987991, No Iterations 5
GAMG:  Solving for p, Initial residual = 0.0124567, Final residual = 0.000475542, No Iterations 2
time step continuity errors : sum local = 0.00125542, global = 0.000158724, cumulative = 0.00594693
smoothSolver:  Solving for omega, Initial residual = 0.00399827, Final residual = 0.000271063, No Iterations 6
smoothSolver:  Solving for k, Initial residual = 0.0359625, Final residual = 0.00288761, No Iterations 6
ExecutionTime = 0.44 s  ClockTime = 0 s

scalarTransport execute: age
smoothSolver:  Solving for age, Initial residual = 0.0136404, Final residual = 0.00123563, No Iterations 10

Time = 33

smoothSolver:  Solving for Ux, Initial residual = 0.0196063, Final residual = 0.00141449, No Iterations 6
smoothSolver:  Solving for Uy, Initial residual = 0.00969023, Final residual = 0.000948794, No Iterations 5
GAMG:  Solving for p, Initial residual = 0.0119744, Final residual = 0.000458192, No Iterations 2
time step continuity errors : sum local = 0.00120954, global = 0.000152269, cumulative = 0.0060992
smoothSolver:  Solving for omega, Initial residual = 0.00377567, Final residual = 0.000254868, No Iterations 6
smoothSolver:  Solving for k, Initial residual = 0.0345202, Final residual = 0.00277629, No Iterations 6
ExecutionTime = 0.45 s  ClockTime = 0 s

scalarTransport execute: age
smoothSolver:  Solving for age, Initial residual = 0.0139051, Final residual = 0.00130699, No Iterations 10

Time = 34

smoothSolver:  Solving for Ux, Initial residual = 0.0196199, Final residual = 0.00141635, No Iterations 6
smoothSolver:  Solving for Uy, Initial residual = 0.00929676, Final residual = 0.000911342, No Iterations 5
GAMG:  Solving for p, Initial residual = 0.0114983, Final residual = 0.000437922, No Iterations 2
time step continuity errors : sum local = 0.00115457, global = 0.000142272, cumulative = 0.00624147
smoothSolver:  Solving for omega, Initial residual = 0.00356842, Final residual = 0.000239865, No Iterations 6
smoothSolver:  Solving for k, Initial residual = 0.0331661, Final residual = 0.00267192, No Iterations 6
ExecutionTime = 0.46 s  ClockTime = 1 s

scalarTransport execute: age
smoothSolver:  Solving for age, Initial residual = 0.0143062, Final residual = 0.00138218, No Iterations 10

Time = 35

smoothSolver:  Solving for Ux, Initial residual = 0.0196148, Final residual = 0.0014181, No Iterations 6
smoothSolver:  Solving for Uy, Initial residual = 0.00891801, Final residual = 0.000877043, No Iterations 5
GAMG:  Solving for p, Initial residual = 0.0111416, Final residual = 0.000425047, No Iterations 2
time step continuity errors : sum local = 0.00112082, global = 0.000133763, cumulative = 0.00637523
smoothSolver:  Solving for omega, Initial residual = 0.00337671, Final residual = 0.000225983, No Iterations 6
smoothSolver:  Solving for k, Initial residual = 0.031898, Final residual = 0.00257422, No Iterations 6
ExecutionTime = 0.47 s  ClockTime = 1 s

scalarTransport execute: age
smoothSolver:  Solving for age, Initial residual = 0.0146756, Final residual = 0.00145062, No Iterations 10

Time = 36

smoothSolver:  Solving for Ux, Initial residual = 0.0195765, Final residual = 0.0014179, No Iterations 6
smoothSolver:  Solving for Uy, Initial residual = 0.00859331, Final residual = 0.000846231, No Iterations 5
GAMG:  Solving for p, Initial residual = 0.0109369, Final residual = 0.000425424, No Iterations 2
time step continuity errors : sum local = 0.00112134, global = 0.000126082, cumulative = 0.00650132
smoothSolver:  Solving for omega, Initial residual = 0.00320085, Final residual = 0.000213118, No Iterations 6
smoothSolver:  Solving for k, Initial residual = 0.0307093, Final residual = 0.00248255, No Iterations 6
ExecutionTime = 0.49 s  ClockTime = 1 s

scalarTransport execute: age
smoothSolver:  Solving for age, Initial residual = 0.0150246, Final residual = 0.00129655, No Iterations 11

Time = 37

smoothSolver:  Solving for Ux, Initial residual = 0.0195264, Final residual = 0.00141571, No Iterations 6
smoothSolver:  Solving for Uy, Initial residual = 0.00830773, Final residual = 0.000819252, No Iterations 5
GAMG:  Solving for p, Initial residual = 0.0108016, Final residual = 0.000439456, No Iterations 2
time step continuity errors : sum local = 0.00115711, global = 0.000121353, cumulative = 0.00662267
smoothSolver:  Solving for omega, Initial residual = 0.00303788, Final residual = 0.000201146, No Iterations 6
smoothSolver:  Solving for k, Initial residual = 0.0296005, Final residual = 0.00239671, No Iterations 6
ExecutionTime = 0.5 s  ClockTime = 1 s

scalarTransport execute: age
smoothSolver:  Solving for age, Initial residual = 0.0153385, Final residual = 0.00134113, No Iterations 11

Time = 38

smoothSolver:  Solving for Ux, Initial residual = 0.0194815, Final residual = 0.00141129, No Iterations 6
smoothSolver:  Solving for Uy, Initial residual = 0.00804201, Final residual = 0.000796236, No Iterations 5
GAMG:  Solving for p, Initial residual = 0.010639, Final residual = 0.000458756, No Iterations 2
time step continuity errors : sum local = 0.00120664, global = 0.000117593, cumulative = 0.00674026
smoothSolver:  Solving for omega, Initial residual = 0.00288544, Final residual = 0.000189992, No Iterations 6
smoothSolver:  Solving for k, Initial residual = 0.0285634, Final residual = 0.00231615, No Iterations 6
ExecutionTime = 0.51 s  ClockTime = 1 s

scalarTransport execute: age
smoothSolver:  Solving for age, Initial residual = 0.0155663, Final residual = 0.00138672, No Iterations 11

Time = 39

smoothSolver:  Solving for Ux, Initial residual = 0.0194259, Final residual = 0.00140485, No Iterations 6
smoothSolver:  Solving for Uy, Initial residual = 0.00781014, Final residual = 0.000777432, No Iterations 5
GAMG:  Solving for p, Initial residual = 0.0105237, Final residual = 0.000482718, No Iterations 2
time step continuity errors : sum local = 0.00126849, global = 0.000116297, cumulative = 0.00685656
smoothSolver:  Solving for omega, Initial residual = 0.0027442, Final residual = 0.000179573, No Iterations 6
smoothSolver:  Solving for k, Initial residual = 0.0275951, Final residual = 0.00224043, No Iterations 6
ExecutionTime = 0.52 s  ClockTime = 1 s

scalarTransport execute: age
smoothSolver:  Solving for age, Initial residual = 0.0157303, Final residual = 0.00143316, No Iterations 11

Time = 40

smoothSolver:  Solving for Ux, Initial residual = 0.0193478, Final residual = 0.00139661, No Iterations 6
smoothSolver:  Solving for Uy, Initial residual = 0.00762503, Final residual = 0.000495854, No Iterations 6
GAMG:  Solving for p, Initial residual = 0.0103524, Final residual = 0.000496885, No Iterations 2
time step continuity errors : sum local = 0.00130211, global = 0.000120417, cumulative = 0.00697698
smoothSolver:  Solving for omega, Initial residual = 0.00261145, Final residual = 0.000169828, No Iterations 6
smoothSolver:  Solving for k, Initial residual = 0.0266905, Final residual = 0.00216913, No Iterations 6
ExecutionTime = 0.54 s  ClockTime = 1 s

scalarTransport execute: age
smoothSolver:  Solving for age, Initial residual = 0.0159416, Final residual = 0.00148236, No Iterations 11

Time = 41

smoothSolver:  Solving for Ux, Initial residual = 0.0192486, Final residual = 0.00138669, No Iterations 6
smoothSolver:  Solving for Uy, Initial residual = 0.0074006, Final residual = 0.000483387, No Iterations 6
GAMG:  Solving for p, Initial residual = 0.010192, Final residual = 0.000519957, No Iterations 2
time step continuity errors : sum local = 0.0013599, global = 0.000127451, cumulative = 0.00710443
smoothSolver:  Solving for omega, Initial residual = 0.00249059, Final residual = 0.000247248, No Iterations 5
smoothSolver:  Solving for k, Initial residual = 0.0258595, Final residual = 0.00210324, No Iterations 6
ExecutionTime = 0.55 s  ClockTime = 1 s

scalarTransport execute: age
smoothSolver:  Solving for age, Initial residual = 0.0160843, Final residual = 0.00152373, No Iterations 11

Time = 42

smoothSolver:  Solving for Ux, Initial residual = 0.0191321, Final residual = 0.0013757, No Iterations 6
smoothSolver:  Solving for Uy, Initial residual = 0.00724069, Final residual = 0.000475679, No Iterations 6
GAMG:  Solving for p, Initial residual = 0.0101185, Final residual = 0.000546929, No Iterations 2
time step continuity errors : sum local = 0.0014294, global = 0.000135382, cumulative = 0.00723981
smoothSolver:  Solving for omega, Initial residual = 0.00238915, Final residual = 0.0002351, No Iterations 5
smoothSolver:  Solving for k, Initial residual = 0.0250926, Final residual = 0.00204163, No Iterations 6
ExecutionTime = 0.56 s  ClockTime = 1 s

scalarTransport execute: age
smoothSolver:  Solving for age, Initial residual = 0.0161994, Final residual = 0.00155097, No Iterations 11

Time = 43

smoothSolver:  Solving for Ux, Initial residual = 0.0190001, Final residual = 0.0013645, No Iterations 6
smoothSolver:  Solving for Uy, Initial residual = 0.00715083, Final residual = 0.00047337, No Iterations 6
GAMG:  Solving for p, Initial residual = 0.0100697, Final residual = 0.000573072, No Iterations 2
time step continuity errors : sum local = 0.0014974, global = 0.000143737, cumulative = 0.00738355
smoothSolver:  Solving for omega, Initial residual = 0.00229248, Final residual = 0.000223634, No Iterations 5
smoothSolver:  Solving for k, Initial residual = 0.0243691, Final residual = 0.00198317, No Iterations 6
ExecutionTime = 0.58 s  ClockTime = 1 s

scalarTransport execute: age
smoothSolver:  Solving for age, Initial residual = 0.0162387, Final residual = 0.00155228, No Iterations 11

Time = 44

smoothSolver:  Solving for Ux, Initial residual = 0.0188594, Final residual = 0.00135338, No Iterations 6
smoothSolver:  Solving for Uy, Initial residual = 0.00711847, Final residual = 0.000476079, No Iterations 6
GAMG:  Solving for p, Initial residual = 0.00999666, Final residual = 0.000594505, No Iterations 2
time step continuity errors : sum local = 0.00155155, global = 0.000152713, cumulative = 0.00753626
smoothSolver:  Solving for omega, Initial residual = 0.00220066, Final residual = 0.000212727, No Iterations 5
smoothSolver:  Solving for k, Initial residual = 0.0236867, Final residual = 0.00192778, No Iterations 6
ExecutionTime = 0.59 s  ClockTime = 1 s

scalarTransport execute: age
smoothSolver:  Solving for age, Initial residual = 0.016059, Final residual = 0.00153769, No Iterations 11

Time = 45

smoothSolver:  Solving for Ux, Initial residual = 0.0187113, Final residual = 0.0013427, No Iterations 6
smoothSolver:  Solving for Uy, Initial residual = 0.00713104, Final residual = 0.000482784, No Iterations 6
GAMG:  Solving for p, Initial residual = 0.00976425, Final residual = 0.000600482, No Iterations 2
time step continuity errors : sum local = 0.00156184, global = 0.000160627, cumulative = 0.00769689
smoothSolver:  Solving for omega, Initial residual = 0.00211139, Final residual = 0.000202418, No Iterations 5
smoothSolver:  Solving for k, Initial residual = 0.02304, Final residual = 0.00187522, No Iterations 6
ExecutionTime = 0.6 s  ClockTime = 1 s

scalarTransport execute: age
smoothSolver:  Solving for age, Initial residual = 0.0158744, Final residual = 0.00153462, No Iterations 11

Time = 46

smoothSolver:  Solving for Ux, Initial residual = 0.0185463, Final residual = 0.00133182, No Iterations 6
smoothSolver:  Solving for Uy, Initial residual = 0.00717926, Final residual = 0.000492308, No Iterations 6
GAMG:  Solving for p, Initial residual = 0.00960912, Final residual = 0.00060678, No Iterations 2
time step continuity errors : sum local = 0.00157457, global = 0.000167113, cumulative = 0.007864
smoothSolver:  Solving for omega, Initial residual = 0.00202293, Final residual = 0.000192787, No Iterations 5
smoothSolver:  Solving for k, Initial residual = 0.022427, Final residual = 0.00182517, No Iterations 6
ExecutionTime = 0.61 s  ClockTime = 1 s

scalarTransport execute: age
smoothSolver:  Solving for age, Initial residual = 0.0157336, Final residual = 0.00155877, No Iterations 11

Time = 47

smoothSolver:  Solving for Ux, Initial residual = 0.0183766, Final residual = 0.00132061, No Iterations 6
smoothSolver:  Solving for Uy, Initial residual = 0.00724775, Final residual = 0.00050358, No Iterations 6
GAMG:  Solving for p, Initial residual = 0.00946247, Final residual = 0.000611463, No Iterations 2
time step continuity errors : sum local = 0.00158382, global = 0.000170851, cumulative = 0.00803485
smoothSolver:  Solving for omega, Initial residual = 0.0019405, Final residual = 0.000183755, No Iterations 5
smoothSolver:  Solving for k, Initial residual = 0.0218431, Final residual = 0.00177745, No Iterations 6
ExecutionTime = 0.63 s  ClockTime = 1 s

scalarTransport execute: age
smoothSolver:  Solving for age, Initial residual = 0.015664, Final residual = 0.00140889, No Iterations 12

Time = 48

smoothSolver:  Solving for Ux, Initial residual = 0.0181983, Final residual = 0.00130962, No Iterations 6
smoothSolver:  Solving for Uy, Initial residual = 0.00733813, Final residual = 0.00051595, No Iterations 6
GAMG:  Solving for p, Initial residual = 0.00930503, Final residual = 0.000621339, No Iterations 2
time step continuity errors : sum local = 0.00160673, global = 0.000173869, cumulative = 0.00820872
smoothSolver:  Solving for omega, Initial residual = 0.00186266, Final residual = 0.000175286, No Iterations 5
smoothSolver:  Solving for k, Initial residual = 0.021288, Final residual = 0.00173193, No Iterations 6
ExecutionTime = 0.64 s  ClockTime = 1 s

scalarTransport execute: age
smoothSolver:  Solving for age, Initial residual = 0.0156443, Final residual = 0.00145442, No Iterations 12

Time = 49

smoothSolver:  Solving for Ux, Initial residual = 0.0180013, Final residual = 0.00129745, No Iterations 6
smoothSolver:  Solving for Uy, Initial residual = 0.007441, Final residual = 0.000529441, No Iterations 6
GAMG:  Solving for p, Initial residual = 0.00913986, Final residual = 0.000632937, No Iterations 2
time step continuity errors : sum local = 0.00163452, global = 0.000176025, cumulative = 0.00838474
smoothSolver:  Solving for omega, Initial residual = 0.00178845, Final residual = 0.000167266, No Iterations 5
smoothSolver:  Solving for k, Initial residual = 0.0207603, Final residual = 0.00168839, No Iterations 6
ExecutionTime = 0.65 s  ClockTime = 1 s

scalarTransport execute: age
smoothSolver:  Solving for age, Initial residual = 0.0157046, Final residual = 0.00149621, No Iterations 12

Time = 50

smoothSolver:  Solving for Ux, Initial residual = 0.0177849, Final residual = 0.00128416, No Iterations 6
smoothSolver:  Solving for Uy, Initial residual = 0.00755823, Final residual = 0.000544057, No Iterations 6
GAMG:  Solving for p, Initial residual = 0.00895963, Final residual = 0.000643604, No Iterations 2
time step continuity errors : sum local = 0.0016598, global = 0.000177038, cumulative = 0.00856178
smoothSolver:  Solving for omega, Initial residual = 0.00171809, Final residual = 0.000159626, No Iterations 5
smoothSolver:  Solving for k, Initial residual = 0.0202581, Final residual = 0.00164675, No Iterations 6
ExecutionTime = 0.67 s  ClockTime = 1 s

scalarTransport execute: age
smoothSolver:  Solving for age, Initial residual = 0.015784, Final residual = 0.00153902, No Iterations 12

Time = 51

smoothSolver:  Solving for Ux, Initial residual = 0.0175508, Final residual = 0.00127006, No Iterations 6
smoothSolver:  Solving for Uy, Initial residual = 0.00769886, Final residual = 0.000559595, No Iterations 6
GAMG:  Solving for p, Initial residual = 0.00876934, Final residual = 0.000653499, No Iterations 2
time step continuity errors : sum local = 0.00168264, global = 0.000177326, cumulative = 0.00873911
smoothSolver:  Solving for omega, Initial residual = 0.00165357, Final residual = 0.000152353, No Iterations 5
smoothSolver:  Solving for k, Initial residual = 0.0197804, Final residual = 0.00160692, No Iterations 6
ExecutionTime = 0.68 s  ClockTime = 1 s

scalarTransport execute: age
smoothSolver:  Solving for age, Initial residual = 0.0159674, Final residual = 0.001579, No Iterations 12

Time = 52

smoothSolver:  Solving for Ux, Initial residual = 0.0173043, Final residual = 0.00125562, No Iterations 6
smoothSolver:  Solving for Uy, Initial residual = 0.00784626, Final residual = 0.00057563, No Iterations 6
GAMG:  Solving for p, Initial residual = 0.00859008, Final residual = 0.000662844, No Iterations 2
time step continuity errors : sum local = 0.0017039, global = 0.000177178, cumulative = 0.00891629
smoothSolver:  Solving for omega, Initial residual = 0.00158932, Final residual = 0.000145529, No Iterations 5
smoothSolver:  Solving for k, Initial residual = 0.0193239, Final residual = 0.0015687, No Iterations 6
ExecutionTime = 0.69 s  ClockTime = 1 s

scalarTransport execute: age
smoothSolver:  Solving for age, Initial residual = 0.0161338, Final residual = 0.00141177, No Iterations 13

Time = 53

smoothSolver:  Solving for Ux, Initial residual = 0.0170535, Final residual = 0.0012409, No Iterations 6
smoothSolver:  Solving for Uy, Initial residual = 0.00800193, Final residual = 0.000591715, No Iterations 6
GAMG:  Solving for p, Initial residual = 0.00843452, Final residual = 0.000674179, No Iterations 2
time step continuity errors : sum local = 0.00172954, global = 0.000178102, cumulative = 0.00909439
smoothSolver:  Solving for omega, Initial residual = 0.00153032, Final residual = 0.000139126, No Iterations 5
smoothSolver:  Solving for k, Initial residual = 0.0188876, Final residual = 0.00153189, No Iterations 6
ExecutionTime = 0.7 s  ClockTime = 1 s

scalarTransport execute: age
smoothSolver:  Solving for age, Initial residual = 0.0162129, Final residual = 0.00143294, No Iterations 13

Time = 54

smoothSolver:  Solving for Ux, Initial residual = 0.0168025, Final residual = 0.00122556, No Iterations 6
smoothSolver:  Solving for Uy, Initial residual = 0.00816228, Final residual = 0.000607413, No Iterations 6
GAMG:  Solving for p, Initial residual = 0.00829295, Final residual = 0.000683418, No Iterations 2
time step continuity errors : sum local = 0.00174987, global = 0.000180081, cumulative = 0.00927447
smoothSolver:  Solving for omega, Initial residual = 0.00147479, Final residual = 0.00013312, No Iterations 5
smoothSolver:  Solving for k, Initial residual = 0.01847, Final residual = 0.00149646, No Iterations 6
ExecutionTime = 0.72 s  ClockTime = 1 s

scalarTransport execute: age
smoothSolver:  Solving for age, Initial residual = 0.01631, Final residual = 0.00145512, No Iterations 13

Time = 55

smoothSolver:  Solving for Ux, Initial residual = 0.0165677, Final residual = 0.00121024, No Iterations 6
smoothSolver:  Solving for Uy, Initial residual = 0.00832522, Final residual = 0.000622474, No Iterations 6
GAMG:  Solving for p, Initial residual = 0.00818131, Final residual = 0.000693352, No Iterations 2
time step continuity errors : sum local = 0.00177176, global = 0.000181763, cumulative = 0.00945623
smoothSolver:  Solving for omega, Initial residual = 0.00142438, Final residual = 0.000127495, No Iterations 5
smoothSolver:  Solving for k, Initial residual = 0.0180698, Final residual = 0.00146232, No Iterations 6
ExecutionTime = 0.73 s  ClockTime = 1 s

scalarTransport execute: age
smoothSolver:  Solving for age, Initial residual = 0.0163472, Final residual = 0.00147584, No Iterations 13

Time = 56

smoothSolver:  Solving for Ux, Initial residual = 0.0163445, Final residual = 0.001195, No Iterations 6
smoothSolver:  Solving for Uy, Initial residual = 0.00848375, Final residual = 0.000636455, No Iterations 6
GAMG:  Solving for p, Initial residual = 0.00809025, Final residual = 0.000705238, No Iterations 2
time step continuity errors : sum local = 0.00179876, global = 0.000182566, cumulative = 0.0096388
smoothSolver:  Solving for omega, Initial residual = 0.00137883, Final residual = 0.000122298, No Iterations 5
smoothSolver:  Solving for k, Initial residual = 0.0176836, Final residual = 0.00142938, No Iterations 6
ExecutionTime = 0.74 s  ClockTime = 1 s

scalarTransport execute: age
smoothSolver:  Solving for age, Initial residual = 0.0163829, Final residual = 0.0014941, No Iterations 13

Time = 57

smoothSolver:  Solving for Ux, Initial residual = 0.0161288, Final residual = 0.00117985, No Iterations 6
smoothSolver:  Solving for Uy, Initial residual = 0.00863025, Final residual = 0.000649102, No Iterations 6
GAMG:  Solving for p, Initial residual = 0.00803946, Final residual = 0.000720006, No Iterations 2
time step continuity errors : sum local = 0.0018331, global = 0.000182547, cumulative = 0.00982135
smoothSolver:  Solving for omega, Initial residual = 0.00133922, Final residual = 0.000117437, No Iterations 5
smoothSolver:  Solving for k, Initial residual = 0.0173122, Final residual = 0.00139759, No Iterations 6
ExecutionTime = 0.76 s  ClockTime = 1 s

scalarTransport execute: age
smoothSolver:  Solving for age, Initial residual = 0.0164927, Final residual = 0.00150997, No Iterations 13

Time = 58

smoothSolver:  Solving for Ux, Initial residual = 0.0159191, Final residual = 0.00116469, No Iterations 6
smoothSolver:  Solving for Uy, Initial residual = 0.00875795, Final residual = 0.000660306, No Iterations 6
GAMG:  Solving for p, Initial residual = 0.00798872, Final residual = 0.000732254, No Iterations 2
time step continuity errors : sum local = 0.00186007, global = 0.000181481, cumulative = 0.0100028
smoothSolver:  Solving for omega, Initial residual = 0.00130174, Final residual = 0.000112893, No Iterations 5
smoothSolver:  Solving for k, Initial residual = 0.0169529, Final residual = 0.00136684, No Iterations 6
ExecutionTime = 0.77 s  ClockTime = 1 s

scalarTransport execute: age
smoothSolver:  Solving for age, Initial residual = 0.0166172, Final residual = 0.00152465, No Iterations 13

Time = 59

smoothSolver:  Solving for Ux, Initial residual = 0.0157047, Final residual = 0.00114938, No Iterations 6
smoothSolver:  Solving for Uy, Initial residual = 0.00886373, Final residual = 0.000669886, No Iterations 6
GAMG:  Solving for p, Initial residual = 0.00787274, Final residual = 0.000737532, No Iterations 2
time step continuity errors : sum local = 0.0018668, global = 0.000179399, cumulative = 0.0101822
smoothSolver:  Solving for omega, Initial residual = 0.00125872, Final residual = 0.000108587, No Iterations 5
smoothSolver:  Solving for k, Initial residual = 0.0166076, Final residual = 0.00133714, No Iterations 6
ExecutionTime = 0.78 s  ClockTime = 1 s

scalarTransport execute: age
smoothSolver:  Solving for age, Initial residual = 0.0167176, Final residual = 0.00153655, No Iterations 13

Time = 60

smoothSolver:  Solving for Ux, Initial residual = 0.0154942, Final residual = 0.00113443, No Iterations 6
smoothSolver:  Solving for Uy, Initial residual = 0.00894717, Final residual = 0.000677869, No Iterations 6
GAMG:  Solving for p, Initial residual = 0.00783124, Final residual = 0.000743418, No Iterations 2
time step continuity errors : sum local = 0.00187508, global = 0.000176803, cumulative = 0.010359
smoothSolver:  Solving for omega, Initial residual = 0.00122665, Final residual = 0.00010469, No Iterations 5
smoothSolver:  Solving for k, Initial residual = 0.0162736, Final residual = 0.00130839, No Iterations 6
ExecutionTime = 0.79 s  ClockTime = 1 s

scalarTransport execute: age
smoothSolver:  Solving for age, Initial residual = 0.0168601, Final residual = 0.00154638, No Iterations 13

Time = 61

smoothSolver:  Solving for Ux, Initial residual = 0.0152965, Final residual = 0.00111988, No Iterations 6
smoothSolver:  Solving for Uy, Initial residual = 0.00900969, Final residual = 0.000684225, No Iterations 6
GAMG:  Solving for p, Initial residual = 0.00782596, Final residual = 0.000740476, No Iterations 2
time step continuity errors : sum local = 0.00186142, global = 0.000165045, cumulative = 0.0105241
smoothSolver:  Solving for omega, Initial residual = 0.00119753, Final residual = 0.000101064, No Iterations 5
smoothSolver:  Solving for k, Initial residual = 0.0159497, Final residual = 0.00128049, No Iterations 6
ExecutionTime = 0.81 s  ClockTime = 1 s

scalarTransport execute: age
smoothSolver:  Solving for age, Initial residual = 0.0169824, Final residual = 0.00155408, No Iterations 13

Time = 62

smoothSolver:  Solving for Ux, Initial residual = 0.0151475, Final residual = 0.00110731, No Iterations 6
smoothSolver:  Solving for Uy, Initial residual = 0.00904282, Final residual = 0.00068826, No Iterations 6
GAMG:  Solving for p, Initial residual = 0.0078328, Final residual = 0.000750942, No Iterations 2
time step continuity errors : sum local = 0.00187986, global = 0.000160083, cumulative = 0.0106842
smoothSolver:  Solving for omega, Initial residual = 0.00117027, Final residual = 9.77164e-05, No Iterations 5
smoothSolver:  Solving for k, Initial residual = 0.0156347, Final residual = 0.00125338, No Iterations 6
ExecutionTime = 0.82 s  ClockTime = 1 s

scalarTransport execute: age
smoothSolver:  Solving for age, Initial residual = 0.0170526, Final residual = 0.00156061, No Iterations 13

Time = 63

smoothSolver:  Solving for Ux, Initial residual = 0.0150003, Final residual = 0.0010943, No Iterations 6
smoothSolver:  Solving for Uy, Initial residual = 0.00905915, Final residual = 0.000691111, No Iterations 6
GAMG:  Solving for p, Initial residual = 0.00782826, Final residual = 0.00075743, No Iterations 2
time step continuity errors : sum local = 0.0018875, global = 0.000155536, cumulative = 0.0108397
smoothSolver:  Solving for omega, Initial residual = 0.00114309, Final residual = 9.45459e-05, No Iterations 5
smoothSolver:  Solving for k, Initial residual = 0.0153275, Final residual = 0.00122701, No Iterations 6
ExecutionTime = 0.83 s  ClockTime = 1 s

scalarTransport execute: age
smoothSolver:  Solving for age, Initial residual = 0.0172825, Final residual = 0.00164605, No Iterations 13

Time = 64

smoothSolver:  Solving for Ux, Initial residual = 0.0148679, Final residual = 0.0010829, No Iterations 6
smoothSolver:  Solving for Uy, Initial residual = 0.00905494, Final residual = 0.000692646, No Iterations 6
GAMG:  Solving for p, Initial residual = 0.00781407, Final residual = 0.000753657, No Iterations 2
time step continuity errors : sum local = 0.00186988, global = 0.000145983, cumulative = 0.0109857
smoothSolver:  Solving for omega, Initial residual = 0.00111757, Final residual = 9.15868e-05, No Iterations 5
smoothSolver:  Solving for k, Initial residual = 0.0150292, Final residual = 0.00120137, No Iterations 6
ExecutionTime = 0.84 s  ClockTime = 1 s

scalarTransport execute: age
smoothSolver:  Solving for age, Initial residual = 0.0173902, Final residual = 0.00169875, No Iterations 13

Time = 65

smoothSolver:  Solving for Ux, Initial residual = 0.0147803, Final residual = 0.00107485, No Iterations 6
smoothSolver:  Solving for Uy, Initial residual = 0.00902856, Final residual = 0.000692221, No Iterations 6
GAMG:  Solving for p, Initial residual = 0.0078079, Final residual = 0.000753276, No Iterations 2
time step continuity errors : sum local = 0.0018601, global = 0.000143548, cumulative = 0.0111292
smoothSolver:  Solving for omega, Initial residual = 0.00109308, Final residual = 8.88393e-05, No Iterations 5
smoothSolver:  Solving for k, Initial residual = 0.014738, Final residual = 0.00117636, No Iterations 6
ExecutionTime = 0.86 s  ClockTime = 1 s

scalarTransport execute: age
smoothSolver:  Solving for age, Initial residual = 0.0173539, Final residual = 0.00171287, No Iterations 13

Time = 66

smoothSolver:  Solving for Ux, Initial residual = 0.0146994, Final residual = 0.00106796, No Iterations 6
smoothSolver:  Solving for Uy, Initial residual = 0.00898958, Final residual = 0.000690656, No Iterations 6
GAMG:  Solving for p, Initial residual = 0.00781734, Final residual = 0.000748471, No Iterations 2
time step continuity errors : sum local = 0.00184057, global = 0.000142218, cumulative = 0.0112714
smoothSolver:  Solving for omega, Initial residual = 0.00107181, Final residual = 8.62988e-05, No Iterations 5
smoothSolver:  Solving for k, Initial residual = 0.0144529, Final residual = 0.00115196, No Iterations 6
ExecutionTime = 0.87 s  ClockTime = 1 s

scalarTransport execute: age
smoothSolver:  Solving for age, Initial residual = 0.0173643, Final residual = 0.00171159, No Iterations 13

Time = 67

smoothSolver:  Solving for Ux, Initial residual = 0.014635, Final residual = 0.00106219, No Iterations 6
smoothSolver:  Solving for Uy, Initial residual = 0.00893038, Final residual = 0.000687353, No Iterations 6
GAMG:  Solving for p, Initial residual = 0.00784891, Final residual = 0.000741428, No Iterations 2
time step continuity errors : sum local = 0.00181525, global = 0.000141384, cumulative = 0.0114128
smoothSolver:  Solving for omega, Initial residual = 0.00104897, Final residual = 8.38488e-05, No Iterations 5
smoothSolver:  Solving for k, Initial residual = 0.014172, Final residual = 0.00112803, No Iterations 6
ExecutionTime = 0.88 s  ClockTime = 1 s

scalarTransport execute: age
smoothSolver:  Solving for age, Initial residual = 0.0172413, Final residual = 0.0016884, No Iterations 13

Time = 68

smoothSolver:  Solving for Ux, Initial residual = 0.0145759, Final residual = 0.00105705, No Iterations 6
smoothSolver:  Solving for Uy, Initial residual = 0.00884944, Final residual = 0.000682321, No Iterations 6
GAMG:  Solving for p, Initial residual = 0.0078904, Final residual = 0.000730905, No Iterations 2
time step continuity errors : sum local = 0.00178116, global = 0.000140633, cumulative = 0.0115535
smoothSolver:  Solving for omega, Initial residual = 0.00102796, Final residual = 8.16238e-05, No Iterations 5
smoothSolver:  Solving for k, Initial residual = 0.0138968, Final residual = 0.00110455, No Iterations 6
ExecutionTime = 0.9 s  ClockTime = 1 s

scalarTransport execute: age
smoothSolver:  Solving for age, Initial residual = 0.0171101, Final residual = 0.00150073, No Iterations 14

Time = 69

smoothSolver:  Solving for Ux, Initial residual = 0.0145172, Final residual = 0.00105197, No Iterations 6
smoothSolver:  Solving for Uy, Initial residual = 0.00875142, Final residual = 0.000675649, No Iterations 6
GAMG:  Solving for p, Initial residual = 0.00797251, Final residual = 0.000717721, No Iterations 2
time step continuity errors : sum local = 0.00174039, global = 0.00013961, cumulative = 0.0116931
smoothSolver:  Solving for omega, Initial residual = 0.00100927, Final residual = 7.96194e-05, No Iterations 5
smoothSolver:  Solving for k, Initial residual = 0.0136255, Final residual = 0.00108149, No Iterations 6
ExecutionTime = 0.91 s  ClockTime = 1 s

scalarTransport execute: age
smoothSolver:  Solving for age, Initial residual = 0.0171145, Final residual = 0.00151589, No Iterations 14

Time = 70

smoothSolver:  Solving for Ux, Initial residual = 0.0144541, Final residual = 0.00104649, No Iterations 6
smoothSolver:  Solving for Uy, Initial residual = 0.00863602, Final residual = 0.000667718, No Iterations 6
GAMG:  Solving for p, Initial residual = 0.00803492, Final residual = 0.00070435, No Iterations 2
time step continuity errors : sum local = 0.00169893, global = 0.000137011, cumulative = 0.0118301
smoothSolver:  Solving for omega, Initial residual = 0.00099093, Final residual = 7.77017e-05, No Iterations 5
smoothSolver:  Solving for k, Initial residual = 0.0133587, Final residual = 0.00105882, No Iterations 6
ExecutionTime = 0.92 s  ClockTime = 1 s

scalarTransport execute: age
smoothSolver:  Solving for age, Initial residual = 0.0169881, Final residual = 0.00152691, No Iterations 14

Time = 71

smoothSolver:  Solving for Ux, Initial residual = 0.0143835, Final residual = 0.00104064, No Iterations 6
smoothSolver:  Solving for Uy, Initial residual = 0.0085094, Final residual = 0.000658646, No Iterations 6
GAMG:  Solving for p, Initial residual = 0.00811129, Final residual = 0.000688983, No Iterations 2
time step continuity errors : sum local = 0.00165292, global = 0.000133412, cumulative = 0.0119635
smoothSolver:  Solving for omega, Initial residual = 0.000972944, Final residual = 7.58676e-05, No Iterations 5
smoothSolver:  Solving for k, Initial residual = 0.0130954, Final residual = 0.00103645, No Iterations 6
ExecutionTime = 0.95 s  ClockTime = 1 s

scalarTransport execute: age
smoothSolver:  Solving for age, Initial residual = 0.0167608, Final residual = 0.00152808, No Iterations 14

Time = 72

smoothSolver:  Solving for Ux, Initial residual = 0.014292, Final residual = 0.00103345, No Iterations 6
smoothSolver:  Solving for Uy, Initial residual = 0.00837276, Final residual = 0.000648626, No Iterations 6
GAMG:  Solving for p, Initial residual = 0.0081742, Final residual = 0.00067598, No Iterations 2
time step continuity errors : sum local = 0.00161308, global = 0.000128897, cumulative = 0.0120924
smoothSolver:  Solving for omega, Initial residual = 0.000955701, Final residual = 7.41185e-05, No Iterations 5
smoothSolver:  Solving for k, Initial residual = 0.0128348, Final residual = 0.00101434, No Iterations 6
ExecutionTime = 0.96 s  ClockTime = 1 s

scalarTransport execute: age
smoothSolver:  Solving for age, Initial residual = 0.0164553, Final residual = 0.00153421, No Iterations 14

Time = 73

smoothSolver:  Solving for Ux, Initial residual = 0.0141768, Final residual = 0.00102469, No Iterations 6
smoothSolver:  Solving for Uy, Initial residual = 0.00822729, Final residual = 0.000637723, No Iterations 6
GAMG:  Solving for p, Initial residual = 0.00821036, Final residual = 0.000665255, No Iterations 2
time step continuity errors : sum local = 0.00157966, global = 0.000123583, cumulative = 0.012216
smoothSolver:  Solving for omega, Initial residual = 0.000933817, Final residual = 7.23354e-05, No Iterations 5
smoothSolver:  Solving for k, Initial residual = 0.0125772, Final residual = 0.000992545, No Iterations 6
ExecutionTime = 0.97 s  ClockTime = 1 s

scalarTransport execute: age
smoothSolver:  Solving for age, Initial residual = 0.01623, Final residual = 0.00153826, No Iterations 14

Time = 74

smoothSolver:  Solving for Ux, Initial residual = 0.0140411, Final residual = 0.00101435, No Iterations 6
smoothSolver:  Solving for Uy, Initial residual = 0.0080722, Final residual = 0.000625972, No Iterations 6
GAMG:  Solving for p, Initial residual = 0.00822586, Final residual = 0.000655005, No Iterations 2
time step continuity errors : sum local = 0.00154797, global = 0.000117655, cumulative = 0.0123336
smoothSolver:  Solving for omega, Initial residual = 0.000917882, Final residual = 7.07055e-05, No Iterations 5
smoothSolver:  Solving for k, Initial residual = 0.0123224, Final residual = 0.000970946, No Iterations 6
ExecutionTime = 0.98 s  ClockTime = 1 s

scalarTransport execute: age
smoothSolver:  Solving for age, Initial residual = 0.0159243, Final residual = 0.00152968, No Iterations 14

Time = 75

smoothSolver:  Solving for Ux, Initial residual = 0.0138833, Final residual = 0.00100241, No Iterations 6
smoothSolver:  Solving for Uy, Initial residual = 0.00791181, Final residual = 0.000613506, No Iterations 6
GAMG:  Solving for p, Initial residual = 0.00824532, Final residual = 0.000644846, No Iterations 2
time step continuity errors : sum local = 0.00151755, global = 0.000111632, cumulative = 0.0124453
smoothSolver:  Solving for omega, Initial residual = 0.000900059, Final residual = 6.92172e-05, No Iterations 5
smoothSolver:  Solving for k, Initial residual = 0.0120712, Final residual = 0.000949539, No Iterations 6
ExecutionTime = 1 s  ClockTime = 1 s

scalarTransport execute: age
smoothSolver:  Solving for age, Initial residual = 0.0155271, Final residual = 0.0015207, No Iterations 14

Time = 76

smoothSolver:  Solving for Ux, Initial residual = 0.0137002, Final residual = 0.000988834, No Iterations 6
smoothSolver:  Solving for Uy, Initial residual = 0.00774489, Final residual = 0.00060034, No Iterations 6
GAMG:  Solving for p, Initial residual = 0.00825029, Final residual = 0.000635732, No Iterations 2
time step continuity errors : sum local = 0.00149013, global = 0.000105919, cumulative = 0.0125512
smoothSolver:  Solving for omega, Initial residual = 0.000882247, Final residual = 6.77336e-05, No Iterations 5
smoothSolver:  Solving for k, Initial residual = 0.0118235, Final residual = 0.000928314, No Iterations 6
ExecutionTime = 1.01 s  ClockTime = 1 s

scalarTransport execute: age
smoothSolver:  Solving for age, Initial residual = 0.0151276, Final residual = 0.00151173, No Iterations 14

Time = 77

smoothSolver:  Solving for Ux, Initial residual = 0.0134938, Final residual = 0.000973673, No Iterations 6
smoothSolver:  Solving for Uy, Initial residual = 0.00757451, Final residual = 0.000586516, No Iterations 6
GAMG:  Solving for p, Initial residual = 0.00824414, Final residual = 0.000627945, No Iterations 2
time step continuity errors : sum local = 0.00146545, global = 0.000101139, cumulative = 0.0126523
smoothSolver:  Solving for omega, Initial residual = 0.000865188, Final residual = 6.62468e-05, No Iterations 5
smoothSolver:  Solving for k, Initial residual = 0.0115781, Final residual = 0.000907236, No Iterations 6
ExecutionTime = 1.02 s  ClockTime = 1 s

scalarTransport execute: age
smoothSolver:  Solving for age, Initial residual = 0.0147163, Final residual = 0.00130345, No Iterations 15

Time = 78

smoothSolver:  Solving for Ux, Initial residual = 0.0132644, Final residual = 0.000956906, No Iterations 6
smoothSolver:  Solving for Uy, Initial residual = 0.00740093, Final residual = 0.000572142, No Iterations 6
GAMG:  Solving for p, Initial residual = 0.00820582, Final residual = 0.000621037, No Iterations 2
time step continuity errors : sum local = 0.00144303, global = 9.73143e-05, cumulative = 0.0127496
smoothSolver:  Solving for omega, Initial residual = 0.00084828, Final residual = 6.47455e-05, No Iterations 5
smoothSolver:  Solving for k, Initial residual = 0.0113347, Final residual = 0.000886296, No Iterations 6
ExecutionTime = 1.04 s  ClockTime = 1 s

scalarTransport execute: age
smoothSolver:  Solving for age, Initial residual = 0.0141693, Final residual = 0.00126423, No Iterations 15

Time = 79

smoothSolver:  Solving for Ux, Initial residual = 0.0130131, Final residual = 0.000938535, No Iterations 6
smoothSolver:  Solving for Uy, Initial residual = 0.00722253, Final residual = 0.000557201, No Iterations 6
GAMG:  Solving for p, Initial residual = 0.00814133, Final residual = 0.000613995, No Iterations 2
time step continuity errors : sum local = 0.00142064, global = 9.46238e-05, cumulative = 0.0128443
smoothSolver:  Solving for omega, Initial residual = 0.000832064, Final residual = 6.32151e-05, No Iterations 5
smoothSolver:  Solving for k, Initial residual = 0.011092, Final residual = 0.000865477, No Iterations 6
ExecutionTime = 1.05 s  ClockTime = 1 s

scalarTransport execute: age
smoothSolver:  Solving for age, Initial residual = 0.0135642, Final residual = 0.00121277, No Iterations 15

Time = 80

smoothSolver:  Solving for Ux, Initial residual = 0.0127433, Final residual = 0.000918802, No Iterations 6
smoothSolver:  Solving for Uy, Initial residual = 0.00704081, Final residual = 0.000541826, No Iterations 6
GAMG:  Solving for p, Initial residual = 0.00804878, Final residual = 0.000606965, No Iterations 2
time step continuity errors : sum local = 0.00139867, global = 9.32055e-05, cumulative = 0.0129375
smoothSolver:  Solving for omega, Initial residual = 0.000815517, Final residual = 6.17017e-05, No Iterations 5
smoothSolver:  Solving for k, Initial residual = 0.010851, Final residual = 0.000844778, No Iterations 6
ExecutionTime = 1.06 s  ClockTime = 1 s

scalarTransport execute: age
smoothSolver:  Solving for age, Initial residual = 0.0129579, Final residual = 0.00115325, No Iterations 15

Time = 81

smoothSolver:  Solving for Ux, Initial residual = 0.0124549, Final residual = 0.000897783, No Iterations 6
smoothSolver:  Solving for Uy, Initial residual = 0.00685364, Final residual = 0.000526004, No Iterations 6
GAMG:  Solving for p, Initial residual = 0.00790659, Final residual = 0.000598334, No Iterations 2
time step continuity errors : sum local = 0.00137333, global = 9.31593e-05, cumulative = 0.0130306
smoothSolver:  Solving for omega, Initial residual = 0.000798886, Final residual = 6.01984e-05, No Iterations 5
smoothSolver:  Solving for k, Initial residual = 0.0106106, Final residual = 0.000824133, No Iterations 6
ExecutionTime = 1.07 s  ClockTime = 1 s

scalarTransport execute: age
smoothSolver:  Solving for age, Initial residual = 0.0123495, Final residual = 0.00108771, No Iterations 15

Time = 82

smoothSolver:  Solving for Ux, Initial residual = 0.0121449, Final residual = 0.000875435, No Iterations 6
smoothSolver:  Solving for Uy, Initial residual = 0.0066648, Final residual = 0.000509747, No Iterations 6
GAMG:  Solving for p, Initial residual = 0.00775286, Final residual = 0.000588029, No Iterations 2
time step continuity errors : sum local = 0.00134431, global = 9.42424e-05, cumulative = 0.0131249
smoothSolver:  Solving for omega, Initial residual = 0.000781984, Final residual = 5.86848e-05, No Iterations 5
smoothSolver:  Solving for k, Initial residual = 0.0103703, Final residual = 0.000803476, No Iterations 6
ExecutionTime = 1.09 s  ClockTime = 1 s

scalarTransport execute: age
smoothSolver:  Solving for age, Initial residual = 0.0117694, Final residual = 0.00116235, No Iterations 14

Time = 83

smoothSolver:  Solving for Ux, Initial residual = 0.0118158, Final residual = 0.00085181, No Iterations 6
smoothSolver:  Solving for Uy, Initial residual = 0.0064803, Final residual = 0.000493186, No Iterations 6
GAMG:  Solving for p, Initial residual = 0.00758757, Final residual = 0.000577245, No Iterations 2
time step continuity errors : sum local = 0.0013143, global = 9.64908e-05, cumulative = 0.0132214
smoothSolver:  Solving for omega, Initial residual = 0.000774762, Final residual = 5.70296e-05, No Iterations 5
smoothSolver:  Solving for k, Initial residual = 0.0101324, Final residual = 0.000782928, No Iterations 6
ExecutionTime = 1.1 s  ClockTime = 1 s

scalarTransport execute: age
smoothSolver:  Solving for age, Initial residual = 0.0112613, Final residual = 0.00109103, No Iterations 14

Time = 84

smoothSolver:  Solving for Ux, Initial residual = 0.0114792, Final residual = 0.00082739, No Iterations 6
smoothSolver:  Solving for Uy, Initial residual = 0.00629104, Final residual = 0.000476234, No Iterations 6
GAMG:  Solving for p, Initial residual = 0.00742381, Final residual = 0.000565815, No Iterations 2
time step continuity errors : sum local = 0.00128326, global = 9.96296e-05, cumulative = 0.013321
smoothSolver:  Solving for omega, Initial residual = 0.000756164, Final residual = 5.54387e-05, No Iterations 5
smoothSolver:  Solving for k, Initial residual = 0.00989279, Final residual = 0.000762334, No Iterations 6
ExecutionTime = 1.11 s  ClockTime = 1 s

scalarTransport execute: age
smoothSolver:  Solving for age, Initial residual = 0.0108264, Final residual = 0.00102815, No Iterations 14

Time = 85

smoothSolver:  Solving for Ux, Initial residual = 0.0111398, Final residual = 0.000802634, No Iterations 6
smoothSolver:  Solving for Uy, Initial residual = 0.00610635, Final residual = 0.000459086, No Iterations 6
GAMG:  Solving for p, Initial residual = 0.00724782, Final residual = 0.000555299, No Iterations 2
time step continuity errors : sum local = 0.00125497, global = 0.000103353, cumulative = 0.0134243
smoothSolver:  Solving for omega, Initial residual = 0.000739799, Final residual = 5.38442e-05, No Iterations 5
smoothSolver:  Solving for k, Initial residual = 0.00965451, Final residual = 0.000741826, No Iterations 6
ExecutionTime = 1.13 s  ClockTime = 1 s

scalarTransport execute: age
smoothSolver:  Solving for age, Initial residual = 0.0103805, Final residual = 0.000963822, No Iterations 14

Time = 86

smoothSolver:  Solving for Ux, Initial residual = 0.0107964, Final residual = 0.000777434, No Iterations 6
smoothSolver:  Solving for Uy, Initial residual = 0.00591877, Final residual = 0.000441775, No Iterations 6
GAMG:  Solving for p, Initial residual = 0.00707088, Final residual = 0.000545818, No Iterations 2
time step continuity errors : sum local = 0.00122917, global = 0.000107597, cumulative = 0.0135319
smoothSolver:  Solving for omega, Initial residual = 0.000724696, Final residual = 5.22128e-05, No Iterations 5
smoothSolver:  Solving for k, Initial residual = 0.00941714, Final residual = 0.000721398, No Iterations 6
ExecutionTime = 1.14 s  ClockTime = 1 s

scalarTransport execute: age
smoothSolver:  Solving for age, Initial residual = 0.00991685, Final residual = 0.00090544, No Iterations 14

Time = 87

smoothSolver:  Solving for Ux, Initial residual = 0.0104511, Final residual = 0.000751825, No Iterations 6
smoothSolver:  Solving for Uy, Initial residual = 0.00573295, Final residual = 0.000424288, No Iterations 6
GAMG:  Solving for p, Initial residual = 0.00692114, Final residual = 0.000536385, No Iterations 2
time step continuity errors : sum local = 0.00120357, global = 0.000111861, cumulative = 0.0136438
smoothSolver:  Solving for omega, Initial residual = 0.000705046, Final residual = 5.04767e-05, No Iterations 5
smoothSolver:  Solving for k, Initial residual = 0.00917904, Final residual = 0.000700973, No Iterations 6
ExecutionTime = 1.15 s  ClockTime = 1 s

scalarTransport execute: age
smoothSolver:  Solving for age, Initial residual = 0.00948825, Final residual = 0.000856457, No Iterations 14

Time = 88

smoothSolver:  Solving for Ux, Initial residual = 0.0101067, Final residual = 0.000726161, No Iterations 6
smoothSolver:  Solving for Uy, Initial residual = 0.00554294, Final residual = 0.000406808, No Iterations 6
GAMG:  Solving for p, Initial residual = 0.00683084, Final residual = 0.000527173, No Iterations 2
time step continuity errors : sum local = 0.00117848, global = 0.000115939, cumulative = 0.0137597
smoothSolver:  Solving for omega, Initial residual = 0.000688185, Final residual = 4.87561e-05, No Iterations 5
smoothSolver:  Solving for k, Initial residual = 0.00894265, Final residual = 0.000680571, No Iterations 6
ExecutionTime = 1.17 s  ClockTime = 1 s

scalarTransport execute: age
smoothSolver:  Solving for age, Initial residual = 0.00907179, Final residual = 0.000814521, No Iterations 14

Time = 89

smoothSolver:  Solving for Ux, Initial residual = 0.00975916, Final residual = 0.000700471, No Iterations 6
smoothSolver:  Solving for Uy, Initial residual = 0.00535069, Final residual = 0.000389341, No Iterations 6
GAMG:  Solving for p, Initial residual = 0.00677421, Final residual = 0.00051878, No Iterations 2
time step continuity errors : sum local = 0.00115553, global = 0.000119586, cumulative = 0.0138793
smoothSolver:  Solving for omega, Initial residual = 0.000671148, Final residual = 4.70958e-05, No Iterations 5
smoothSolver:  Solving for k, Initial residual = 0.00870691, Final residual = 0.00066013, No Iterations 6
ExecutionTime = 1.18 s  ClockTime = 1 s

scalarTransport execute: age
smoothSolver:  Solving for age, Initial residual = 0.00865934, Final residual = 0.000786001, No Iterations 14

Time = 90

smoothSolver:  Solving for Ux, Initial residual = 0.00941184, Final residual = 0.000674462, No Iterations 6
smoothSolver:  Solving for Uy, Initial residual = 0.00515479, Final residual = 0.000371883, No Iterations 6
GAMG:  Solving for p, Initial residual = 0.00677324, Final residual = 0.000507215, No Iterations 2
time step continuity errors : sum local = 0.00112588, global = 0.000120288, cumulative = 0.0139996
smoothSolver:  Solving for omega, Initial residual = 0.000655477, Final residual = 4.52538e-05, No Iterations 5
smoothSolver:  Solving for k, Initial residual = 0.00847289, Final residual = 0.00063978, No Iterations 6
ExecutionTime = 1.19 s  ClockTime = 1 s

scalarTransport execute: age
smoothSolver:  Solving for age, Initial residual = 0.00829484, Final residual = 0.000767226, No Iterations 14

Time = 91

smoothSolver:  Solving for Ux, Initial residual = 0.00907259, Final residual = 0.000648785, No Iterations 6
smoothSolver:  Solving for Uy, Initial residual = 0.00495776, Final residual = 0.000354494, No Iterations 6
GAMG:  Solving for p, Initial residual = 0.00672372, Final residual = 0.000500671, No Iterations 2
time step continuity errors : sum local = 0.00110593, global = 0.000121434, cumulative = 0.014121
smoothSolver:  Solving for omega, Initial residual = 0.000641639, Final residual = 4.37031e-05, No Iterations 5
smoothSolver:  Solving for k, Initial residual = 0.0082392, Final residual = 0.000619375, No Iterations 6
ExecutionTime = 1.2 s  ClockTime = 1 s

scalarTransport execute: age
smoothSolver:  Solving for age, Initial residual = 0.00794921, Final residual = 0.000750946, No Iterations 14

Time = 92

smoothSolver:  Solving for Ux, Initial residual = 0.00873141, Final residual = 0.000622872, No Iterations 6
smoothSolver:  Solving for Uy, Initial residual = 0.00476618, Final residual = 0.0003375, No Iterations 6
GAMG:  Solving for p, Initial residual = 0.00672978, Final residual = 0.000495556, No Iterations 2
time step continuity errors : sum local = 0.00109011, global = 0.00012318, cumulative = 0.0142442
smoothSolver:  Solving for omega, Initial residual = 0.000630765, Final residual = 4.23243e-05, No Iterations 5
smoothSolver:  Solving for k, Initial residual = 0.00800634, Final residual = 0.000598953, No Iterations 6
ExecutionTime = 1.22 s  ClockTime = 1 s

scalarTransport execute: age
smoothSolver:  Solving for age, Initial residual = 0.00763176, Final residual = 0.000734521, No Iterations 14

Time = 93

smoothSolver:  Solving for Ux, Initial residual = 0.00839574, Final residual = 0.000596818, No Iterations 6
smoothSolver:  Solving for Uy, Initial residual = 0.00458458, Final residual = 0.000321042, No Iterations 6
GAMG:  Solving for p, Initial residual = 0.00670282, Final residual = 0.000490102, No Iterations 2
time step continuity errors : sum local = 0.00107455, global = 0.000124264, cumulative = 0.0143685
smoothSolver:  Solving for omega, Initial residual = 0.00062152, Final residual = 4.096e-05, No Iterations 5
smoothSolver:  Solving for k, Initial residual = 0.00777403, Final residual = 0.000578523, No Iterations 6
ExecutionTime = 1.23 s  ClockTime = 1 s

scalarTransport execute: age
smoothSolver:  Solving for age, Initial residual = 0.0073299, Final residual = 0.000719247, No Iterations 14

Time = 94

smoothSolver:  Solving for Ux, Initial residual = 0.008057, Final residual = 0.000570919, No Iterations 6
smoothSolver:  Solving for Uy, Initial residual = 0.00441654, Final residual = 0.000305317, No Iterations 6
GAMG:  Solving for p, Initial residual = 0.00661552, Final residual = 0.000484869, No Iterations 2
time step continuity errors : sum local = 0.00105897, global = 0.000126021, cumulative = 0.0144945
smoothSolver:  Solving for omega, Initial residual = 0.000612716, Final residual = 3.96262e-05, No Iterations 5
smoothSolver:  Solving for k, Initial residual = 0.00754255, Final residual = 0.000558106, No Iterations 6
ExecutionTime = 1.24 s  ClockTime = 1 s

scalarTransport execute: age
smoothSolver:  Solving for age, Initial residual = 0.00706634, Final residual = 0.000704901, No Iterations 14

Time = 95

smoothSolver:  Solving for Ux, Initial residual = 0.00771866, Final residual = 0.000544774, No Iterations 6
smoothSolver:  Solving for Uy, Initial residual = 0.00425945, Final residual = 0.000290818, No Iterations 6
GAMG:  Solving for p, Initial residual = 0.00650261, Final residual = 0.000477849, No Iterations 2
time step continuity errors : sum local = 0.00103986, global = 0.000127966, cumulative = 0.0146225
smoothSolver:  Solving for omega, Initial residual = 0.000605122, Final residual = 3.83347e-05, No Iterations 5
smoothSolver:  Solving for k, Initial residual = 0.00731163, Final residual = 0.000537742, No Iterations 6
ExecutionTime = 1.26 s  ClockTime = 1 s

scalarTransport execute: age
smoothSolver:  Solving for age, Initial residual = 0.00680022, Final residual = 0.000608311, No Iterations 15

Time = 96

smoothSolver:  Solving for Ux, Initial residual = 0.00737969, Final residual = 0.000519056, No Iterations 6
[...]

Time = 574

smoothSolver:  Solving for Ux, Initial residual = 4.48427e-07, Final residual = 3.69155e-08, No Iterations 5
smoothSolver:  Solving for Uy, Initial residual = 2.84155e-07, Final residual = 2.22959e-08, No Iterations 5
GAMG:  Solving for p, Initial residual = 1.60252e-06, Final residual = 1.05593e-07, No Iterations 2
time step continuity errors : sum local = 2.12907e-07, global = 2.20061e-08, cumulative = 0.0211736
smoothSolver:  Solving for omega, Initial residual = 5.28349e-08, Final residual = 9.15663e-09, No Iterations 3
smoothSolver:  Solving for k, Initial residual = 1.40076e-07, Final residual = 1.20283e-08, No Iterations 5
ExecutionTime = 7.37 s  ClockTime = 7 s

scalarTransport execute: age
smoothSolver:  Solving for age, Initial residual = 0.000294521, Final residual = 2.7473e-05, No Iterations 15

Time = 575

smoothSolver:  Solving for Ux, Initial residual = 4.39118e-07, Final residual = 3.61474e-08, No Iterations 5
smoothSolver:  Solving for Uy, Initial residual = 2.78227e-07, Final residual = 2.18274e-08, No Iterations 5
GAMG:  Solving for p, Initial residual = 1.56959e-06, Final residual = 1.03418e-07, No Iterations 2
time step continuity errors : sum local = 2.08522e-07, global = 2.15537e-08, cumulative = 0.0211736
smoothSolver:  Solving for omega, Initial residual = 5.19188e-08, Final residual = 9.0117e-09, No Iterations 3
smoothSolver:  Solving for k, Initial residual = 1.37061e-07, Final residual = 1.17681e-08, No Iterations 5
ExecutionTime = 7.38 s  ClockTime = 7 s

scalarTransport execute: age
smoothSolver:  Solving for age, Initial residual = 0.000293895, Final residual = 2.7415e-05, No Iterations 15

Time = 576

smoothSolver:  Solving for Ux, Initial residual = 4.30006e-07, Final residual = 3.53959e-08, No Iterations 5
smoothSolver:  Solving for Uy, Initial residual = 2.72416e-07, Final residual = 2.13683e-08, No Iterations 5
GAMG:  Solving for p, Initial residual = 1.53736e-06, Final residual = 1.01289e-07, No Iterations 2
time step continuity errors : sum local = 2.04229e-07, global = 2.11144e-08, cumulative = 0.0211736
smoothSolver:  Solving for omega, Initial residual = 5.09985e-08, Final residual = 8.86434e-09, No Iterations 3
smoothSolver:  Solving for k, Initial residual = 1.34107e-07, Final residual = 1.15136e-08, No Iterations 5
ExecutionTime = 7.39 s  ClockTime = 7 s

scalarTransport execute: age
smoothSolver:  Solving for age, Initial residual = 0.000293271, Final residual = 2.73574e-05, No Iterations 15

Time = 577

smoothSolver:  Solving for Ux, Initial residual = 4.21087e-07, Final residual = 3.46608e-08, No Iterations 5
smoothSolver:  Solving for Uy, Initial residual = 2.66725e-07, Final residual = 2.09188e-08, No Iterations 5
GAMG:  Solving for p, Initial residual = 1.50578e-06, Final residual = 9.92041e-08, No Iterations 2
time step continuity errors : sum local = 2.00026e-07, global = 2.06869e-08, cumulative = 0.0211736
smoothSolver:  Solving for omega, Initial residual = 5.0078e-08, Final residual = 8.71539e-09, No Iterations 3
smoothSolver:  Solving for k, Initial residual = 1.31215e-07, Final residual = 1.1265e-08, No Iterations 5
ExecutionTime = 7.41 s  ClockTime = 7 s

scalarTransport execute: age
smoothSolver:  Solving for age, Initial residual = 0.00029265, Final residual = 2.72999e-05, No Iterations 15

Time = 578

smoothSolver:  Solving for Ux, Initial residual = 4.12359e-07, Final residual = 3.39416e-08, No Iterations 5
smoothSolver:  Solving for Uy, Initial residual = 2.61158e-07, Final residual = 2.0479e-08, No Iterations 5
GAMG:  Solving for p, Initial residual = 1.47483e-06, Final residual = 9.71628e-08, No Iterations 2
time step continuity errors : sum local = 1.9591e-07, global = 2.02701e-08, cumulative = 0.0211737
smoothSolver:  Solving for omega, Initial residual = 4.91604e-08, Final residual = 8.5655e-09, No Iterations 3
smoothSolver:  Solving for k, Initial residual = 1.28386e-07, Final residual = 1.10224e-08, No Iterations 5
ExecutionTime = 7.42 s  ClockTime = 7 s

scalarTransport execute: age
smoothSolver:  Solving for age, Initial residual = 0.000292031, Final residual = 2.72428e-05, No Iterations 15

Time = 579

smoothSolver:  Solving for Ux, Initial residual = 4.03818e-07, Final residual = 3.32381e-08, No Iterations 5
smoothSolver:  Solving for Uy, Initial residual = 2.55715e-07, Final residual = 2.00488e-08, No Iterations 5
GAMG:  Solving for p, Initial residual = 1.44452e-06, Final residual = 9.51636e-08, No Iterations 2
time step continuity errors : sum local = 1.91879e-07, global = 1.98628e-08, cumulative = 0.0211737
smoothSolver:  Solving for omega, Initial residual = 4.82477e-08, Final residual = 8.41522e-09, No Iterations 3
smoothSolver:  Solving for k, Initial residual = 1.25622e-07, Final residual = 1.07857e-08, No Iterations 5
ExecutionTime = 7.43 s  ClockTime = 7 s

scalarTransport execute: age
smoothSolver:  Solving for age, Initial residual = 0.000291414, Final residual = 2.71859e-05, No Iterations 15

Time = 580

smoothSolver:  Solving for Ux, Initial residual = 3.9546e-07, Final residual = 3.25496e-08, No Iterations 5
smoothSolver:  Solving for Uy, Initial residual = 2.50394e-07, Final residual = 1.9628e-08, No Iterations 5
GAMG:  Solving for p, Initial residual = 1.41482e-06, Final residual = 9.3206e-08, No Iterations 2
time step continuity errors : sum local = 1.87932e-07, global = 1.94641e-08, cumulative = 0.0211737
smoothSolver:  Solving for omega, Initial residual = 4.73418e-08, Final residual = 8.26501e-09, No Iterations 3
smoothSolver:  Solving for k, Initial residual = 1.22923e-07, Final residual = 1.05549e-08, No Iterations 5
ExecutionTime = 7.44 s  ClockTime = 7 s

scalarTransport execute: age
smoothSolver:  Solving for age, Initial residual = 0.0002908, Final residual = 2.71293e-05, No Iterations 15

Time = 581

smoothSolver:  Solving for Ux, Initial residual = 3.87279e-07, Final residual = 3.18757e-08, No Iterations 5
smoothSolver:  Solving for Uy, Initial residual = 2.45191e-07, Final residual = 1.92167e-08, No Iterations 5
GAMG:  Solving for p, Initial residual = 1.3857e-06, Final residual = 9.129e-08, No Iterations 2
time step continuity errors : sum local = 1.84068e-07, global = 1.90732e-08, cumulative = 0.0211737
smoothSolver:  Solving for omega, Initial residual = 4.64438e-08, Final residual = 8.11524e-09, No Iterations 3
smoothSolver:  Solving for k, Initial residual = 1.20289e-07, Final residual = 1.03301e-08, No Iterations 5
ExecutionTime = 7.46 s  ClockTime = 8 s

scalarTransport execute: age
smoothSolver:  Solving for age, Initial residual = 0.000290188, Final residual = 2.70729e-05, No Iterations 15

Time = 582

smoothSolver:  Solving for Ux, Initial residual = 3.7926e-07, Final residual = 3.12158e-08, No Iterations 5
smoothSolver:  Solving for Uy, Initial residual = 2.40105e-07, Final residual = 1.88146e-08, No Iterations 5
GAMG:  Solving for p, Initial residual = 1.35713e-06, Final residual = 8.94145e-08, No Iterations 2
time step continuity errors : sum local = 1.80287e-07, global = 1.86898e-08, cumulative = 0.0211737
smoothSolver:  Solving for omega, Initial residual = 4.55548e-08, Final residual = 7.96622e-09, No Iterations 3
smoothSolver:  Solving for k, Initial residual = 1.17721e-07, Final residual = 1.0111e-08, No Iterations 5
ExecutionTime = 7.47 s  ClockTime = 8 s

scalarTransport execute: age
smoothSolver:  Solving for age, Initial residual = 0.000289579, Final residual = 2.70167e-05, No Iterations 15

Time = 583

smoothSolver:  Solving for Ux, Initial residual = 3.71399e-07, Final residual = 3.05694e-08, No Iterations 5
smoothSolver:  Solving for Uy, Initial residual = 2.3512e-07, Final residual = 1.84216e-08, No Iterations 5
GAMG:  Solving for p, Initial residual = 1.32913e-06, Final residual = 8.75771e-08, No Iterations 2
time step continuity errors : sum local = 1.76582e-07, global = 1.83137e-08, cumulative = 0.0211738
smoothSolver:  Solving for omega, Initial residual = 4.46759e-08, Final residual = 7.81826e-09, No Iterations 3
smoothSolver:  Solving for k, Initial residual = 1.15215e-07, Final residual = 9.89755e-09, No Iterations 5
ExecutionTime = 7.48 s  ClockTime = 8 s

scalarTransport execute: age
smoothSolver:  Solving for age, Initial residual = 0.000288972, Final residual = 2.69608e-05, No Iterations 15

Time = 584

smoothSolver:  Solving for Ux, Initial residual = 3.63702e-07, Final residual = 2.99362e-08, No Iterations 5
smoothSolver:  Solving for Uy, Initial residual = 2.30239e-07, Final residual = 1.80376e-08, No Iterations 5
GAMG:  Solving for p, Initial residual = 1.30171e-06, Final residual = 8.57768e-08, No Iterations 2
time step continuity errors : sum local = 1.72952e-07, global = 1.79448e-08, cumulative = 0.0211738
smoothSolver:  Solving for omega, Initial residual = 4.38077e-08, Final residual = 7.67157e-09, No Iterations 3
smoothSolver:  Solving for k, Initial residual = 1.12773e-07, Final residual = 9.68964e-09, No Iterations 5
ExecutionTime = 7.49 s  ClockTime = 8 s

scalarTransport execute: age
smoothSolver:  Solving for age, Initial residual = 0.000288367, Final residual = 2.69052e-05, No Iterations 15

Time = 585

smoothSolver:  Solving for Ux, Initial residual = 3.56162e-07, Final residual = 2.93157e-08, No Iterations 5
smoothSolver:  Solving for Uy, Initial residual = 2.25465e-07, Final residual = 1.76624e-08, No Iterations 5
GAMG:  Solving for p, Initial residual = 1.27488e-06, Final residual = 8.40128e-08, No Iterations 2
time step continuity errors : sum local = 1.69396e-07, global = 1.75829e-08, cumulative = 0.0211738
smoothSolver:  Solving for omega, Initial residual = 4.29511e-08, Final residual = 7.52632e-09, No Iterations 3
smoothSolver:  Solving for k, Initial residual = 1.10392e-07, Final residual = 9.48709e-09, No Iterations 5
ExecutionTime = 7.51 s  ClockTime = 8 s

scalarTransport execute: age
smoothSolver:  Solving for age, Initial residual = 0.000287764, Final residual = 2.68497e-05, No Iterations 15

Time = 586

smoothSolver:  Solving for Ux, Initial residual = 3.48776e-07, Final residual = 2.87077e-08, No Iterations 5
smoothSolver:  Solving for Uy, Initial residual = 2.20796e-07, Final residual = 1.72959e-08, No Iterations 5
GAMG:  Solving for p, Initial residual = 1.24861e-06, Final residual = 8.22845e-08, No Iterations 2
time step continuity errors : sum local = 1.65911e-07, global = 1.72279e-08, cumulative = 0.0211738
smoothSolver:  Solving for omega, Initial residual = 4.21068e-08, Final residual = 7.38268e-09, No Iterations 3
smoothSolver:  Solving for k, Initial residual = 1.08071e-07, Final residual = 9.28973e-09, No Iterations 5
ExecutionTime = 7.52 s  ClockTime = 8 s

scalarTransport execute: age
smoothSolver:  Solving for age, Initial residual = 0.000287164, Final residual = 2.67945e-05, No Iterations 15

Time = 587

smoothSolver:  Solving for Ux, Initial residual = 3.41541e-07, Final residual = 2.81122e-08, No Iterations 5
smoothSolver:  Solving for Uy, Initial residual = 2.1623e-07, Final residual = 1.69379e-08, No Iterations 5
GAMG:  Solving for p, Initial residual = 1.22291e-06, Final residual = 8.05912e-08, No Iterations 2
time step continuity errors : sum local = 1.62497e-07, global = 1.68798e-08, cumulative = 0.0211738
smoothSolver:  Solving for omega, Initial residual = 4.12753e-08, Final residual = 7.24075e-09, No Iterations 3
smoothSolver:  Solving for k, Initial residual = 1.05809e-07, Final residual = 9.09749e-09, No Iterations 5
ExecutionTime = 7.53 s  ClockTime = 8 s

scalarTransport execute: age
smoothSolver:  Solving for age, Initial residual = 0.000286566, Final residual = 2.67395e-05, No Iterations 15

Time = 588

smoothSolver:  Solving for Ux, Initial residual = 3.34454e-07, Final residual = 2.75289e-08, No Iterations 5
smoothSolver:  Solving for Uy, Initial residual = 2.11766e-07, Final residual = 1.65881e-08, No Iterations 5
GAMG:  Solving for p, Initial residual = 1.19777e-06, Final residual = 7.89327e-08, No Iterations 2
time step continuity errors : sum local = 1.59152e-07, global = 1.65383e-08, cumulative = 0.0211738
smoothSolver:  Solving for omega, Initial residual = 4.0457e-08, Final residual = 7.10065e-09, No Iterations 3
smoothSolver:  Solving for k, Initial residual = 1.03603e-07, Final residual = 8.91012e-09, No Iterations 5
ExecutionTime = 7.54 s  ClockTime = 8 s

scalarTransport execute: age
smoothSolver:  Solving for age, Initial residual = 0.00028597, Final residual = 2.66847e-05, No Iterations 15

Time = 589

smoothSolver:  Solving for Ux, Initial residual = 3.27515e-07, Final residual = 2.69577e-08, No Iterations 5
smoothSolver:  Solving for Uy, Initial residual = 2.07403e-07, Final residual = 1.62465e-08, No Iterations 5
GAMG:  Solving for p, Initial residual = 1.17318e-06, Final residual = 7.73086e-08, No Iterations 2
time step continuity errors : sum local = 1.55878e-07, global = 1.62034e-08, cumulative = 0.0211739
smoothSolver:  Solving for omega, Initial residual = 3.96523e-08, Final residual = 6.96246e-09, No Iterations 3
smoothSolver:  Solving for k, Initial residual = 1.01452e-07, Final residual = 8.72745e-09, No Iterations 5
ExecutionTime = 7.56 s  ClockTime = 8 s

scalarTransport execute: age
smoothSolver:  Solving for age, Initial residual = 0.000285376, Final residual = 2.66301e-05, No Iterations 15

Time = 590

smoothSolver:  Solving for Ux, Initial residual = 3.20723e-07, Final residual = 2.63985e-08, No Iterations 5
smoothSolver:  Solving for Uy, Initial residual = 2.0314e-07, Final residual = 1.59127e-08, No Iterations 5
GAMG:  Solving for p, Initial residual = 1.14912e-06, Final residual = 7.57185e-08, No Iterations 2
time step continuity errors : sum local = 1.52672e-07, global = 1.5875e-08, cumulative = 0.0211739
smoothSolver:  Solving for omega, Initial residual = 3.88613e-08, Final residual = 6.82624e-09, No Iterations 3
smoothSolver:  Solving for k, Initial residual = 9.93547e-08, Final residual = 8.54929e-09, No Iterations 5
ExecutionTime = 7.57 s  ClockTime = 8 s

scalarTransport execute: age
smoothSolver:  Solving for age, Initial residual = 0.000284785, Final residual = 2.65757e-05, No Iterations 15

Time = 591

smoothSolver:  Solving for Ux, Initial residual = 3.14077e-07, Final residual = 2.58511e-08, No Iterations 5
smoothSolver:  Solving for Uy, Initial residual = 1.98975e-07, Final residual = 1.55866e-08, No Iterations 5
GAMG:  Solving for p, Initial residual = 1.1256e-06, Final residual = 7.41621e-08, No Iterations 2
time step continuity errors : sum local = 1.49534e-07, global = 1.55529e-08, cumulative = 0.0211739
smoothSolver:  Solving for omega, Initial residual = 3.8084e-08, Final residual = 6.69204e-09, No Iterations 3
smoothSolver:  Solving for k, Initial residual = 9.73084e-08, Final residual = 8.3755e-09, No Iterations 5
ExecutionTime = 7.58 s  ClockTime = 8 s

scalarTransport execute: age
smoothSolver:  Solving for age, Initial residual = 0.000284196, Final residual = 2.65215e-05, No Iterations 15

Time = 592

smoothSolver:  Solving for Ux, Initial residual = 3.07574e-07, Final residual = 2.53153e-08, No Iterations 5
smoothSolver:  Solving for Uy, Initial residual = 1.94906e-07, Final residual = 1.52681e-08, No Iterations 5
GAMG:  Solving for p, Initial residual = 1.10259e-06, Final residual = 7.2639e-08, No Iterations 2
time step continuity errors : sum local = 1.46462e-07, global = 1.5237e-08, cumulative = 0.0211739
smoothSolver:  Solving for omega, Initial residual = 3.73204e-08, Final residual = 6.55991e-09, No Iterations 3
smoothSolver:  Solving for k, Initial residual = 9.53117e-08, Final residual = 8.20592e-09, No Iterations 5
ExecutionTime = 7.59 s  ClockTime = 8 s

scalarTransport execute: age
smoothSolver:  Solving for age, Initial residual = 0.00028361, Final residual = 2.64674e-05, No Iterations 15

Time = 593

smoothSolver:  Solving for Ux, Initial residual = 3.01212e-07, Final residual = 2.47911e-08, No Iterations 5
smoothSolver:  Solving for Uy, Initial residual = 1.9093e-07, Final residual = 1.49568e-08, No Iterations 5
GAMG:  Solving for p, Initial residual = 1.08009e-06, Final residual = 7.11484e-08, No Iterations 2
time step continuity errors : sum local = 1.43457e-07, global = 1.49273e-08, cumulative = 0.0211739
smoothSolver:  Solving for omega, Initial residual = 3.65703e-08, Final residual = 6.42988e-09, No Iterations 3
smoothSolver:  Solving for k, Initial residual = 9.33628e-08, Final residual = 8.04038e-09, No Iterations 5
ExecutionTime = 7.6 s  ClockTime = 8 s

scalarTransport execute: age
smoothSolver:  Solving for age, Initial residual = 0.000283026, Final residual = 2.64136e-05, No Iterations 15

Time = 594

smoothSolver:  Solving for Ux, Initial residual = 2.94989e-07, Final residual = 2.4278e-08, No Iterations 5
smoothSolver:  Solving for Uy, Initial residual = 1.87043e-07, Final residual = 1.46526e-08, No Iterations 5
GAMG:  Solving for p, Initial residual = 1.05808e-06, Final residual = 6.96896e-08, No Iterations 2
time step continuity errors : sum local = 1.40516e-07, global = 1.46237e-08, cumulative = 0.0211739
smoothSolver:  Solving for omega, Initial residual = 3.58337e-08, Final residual = 6.30199e-09, No Iterations 3
smoothSolver:  Solving for k, Initial residual = 9.14596e-08, Final residual = 7.87873e-09, No Iterations 5
ExecutionTime = 7.62 s  ClockTime = 8 s

scalarTransport execute: age
smoothSolver:  Solving for age, Initial residual = 0.000282444, Final residual = 2.63599e-05, No Iterations 15

Time = 595

smoothSolver:  Solving for Ux, Initial residual = 2.88901e-07, Final residual = 2.3776e-08, No Iterations 5
smoothSolver:  Solving for Uy, Initial residual = 1.83242e-07, Final residual = 1.43552e-08, No Iterations 5
GAMG:  Solving for p, Initial residual = 1.03654e-06, Final residual = 6.82619e-08, No Iterations 2
time step continuity errors : sum local = 1.37637e-07, global = 1.4326e-08, cumulative = 0.0211739
smoothSolver:  Solving for omega, Initial residual = 3.51105e-08, Final residual = 6.17626e-09, No Iterations 3
smoothSolver:  Solving for k, Initial residual = 8.96006e-08, Final residual = 7.72084e-09, No Iterations 5
ExecutionTime = 7.63 s  ClockTime = 8 s

scalarTransport execute: age
smoothSolver:  Solving for age, Initial residual = 0.000281862, Final residual = 2.63064e-05, No Iterations 15

Time = 596

smoothSolver:  Solving for Ux, Initial residual = 2.82945e-07, Final residual = 2.32847e-08, No Iterations 5
smoothSolver:  Solving for Uy, Initial residual = 1.79523e-07, Final residual = 1.40644e-08, No Iterations 5
GAMG:  Solving for p, Initial residual = 1.01546e-06, Final residual = 6.68642e-08, No Iterations 2
time step continuity errors : sum local = 1.34819e-07, global = 1.40341e-08, cumulative = 0.021174
smoothSolver:  Solving for omega, Initial residual = 3.44005e-08, Final residual = 6.0527e-09, No Iterations 3
smoothSolver:  Solving for k, Initial residual = 8.77844e-08, Final residual = 7.56658e-09, No Iterations 5
ExecutionTime = 7.64 s  ClockTime = 8 s

scalarTransport execute: age
smoothSolver:  Solving for age, Initial residual = 0.000281282, Final residual = 2.6253e-05, No Iterations 15

Time = 597

smoothSolver:  Solving for Ux, Initial residual = 2.77116e-07, Final residual = 2.28039e-08, No Iterations 5
smoothSolver:  Solving for Uy, Initial residual = 1.75883e-07, Final residual = 1.37799e-08, No Iterations 5
GAMG:  Solving for p, Initial residual = 9.94821e-07, Final residual = 6.54958e-08, No Iterations 2
time step continuity errors : sum local = 1.3206e-07, global = 1.37479e-08, cumulative = 0.021174
smoothSolver:  Solving for omega, Initial residual = 3.37037e-08, Final residual = 9.96943e-09, No Iterations 2
smoothSolver:  Solving for k, Initial residual = 8.60166e-08, Final residual = 7.40592e-09, No Iterations 5
ExecutionTime = 7.65 s  ClockTime = 8 s


SIMPLE solution converged in 597 iterations

scalarTransport execute: age
smoothSolver:  Solving for age, Initial residual = 0.000280706, Final residual = 2.61999e-05, No Iterations 15

End

