/*---------------------------------------------------------------------------*\
| =========                 |                                                 |
| \\      /  F ield         | OpenFOAM: The Open Source CFD Toolbox           |
|  \\    /   O peration     | Version:  v2012                                 |
|   \\  /    A nd           | Website:  www.openfoam.com                      |
|    \\/     M anipulation  |                                                 |
\*---------------------------------------------------------------------------*/
Build  : _7bdb509494-20201222 OPENFOAM=2012
Arch   : "LSB;label=32;scalar=64"
Exec   : simpleFoam
Date   : Feb 23 2023
Time   : 22:53:50
Host   : johnsDesktop
PID    : 17072
I/O    : uncollated
Case   : /home/john/of_runs/cases/dbl_0_46_6-00360_9
nProcs : 1
trapFpe: Floating point exception trapping enabled (FOAM_SIGFPE).
fileModificationChecking : Monitoring run-time modified files using timeStampMaster (fileModificationSkew 5, maxFileModificationPolls 20)
allowSystemOperations : Allowing user-supplied system call operations

// * * * * * * * * * * * * * * * * * * * * * * * * * * * * * * * * * * * * * //
Create time

Create mesh for time = 0


SIMPLE: convergence criteria
    field p	 tolerance 1e-06
    field U	 tolerance 1e-06
    field "(k|epsilon|omega|f|v2|age)"	 tolerance 1e-05

Reading field p

Reading field U

Reading/calculating face flux field phi

Selecting incompressible transport model Newtonian
Selecting turbulence model type RAS
Selecting RAS turbulence model kOmegaSST
Selecting patchDistMethod meshWave
RAS
{
    RASModel        kOmegaSST;
    turbulence      on;
    printCoeffs     on;
    alphaK1         0.85;
    alphaK2         1;
    alphaOmega1     0.5;
    alphaOmega2     0.856;
    gamma1          0.555556;
    gamma2          0.44;
    beta1           0.075;
    beta2           0.0828;
    betaStar        0.09;
    a1              0.31;
    b1              1;
    c1              10;
    F3              false;
    decayControl    false;
    kInf            0;
    omegaInf        0;
}

No MRF models present

No finite volume options present

Starting time loop

Selecting finite volume options type scalarSemiImplicitSource
    Source: unitySource
    - selecting all cells
    - selected 6532 cell(s) with volume 0.03154
Time = 1

smoothSolver:  Solving for Ux, Initial residual = 0, Final residual = 0, No Iterations 0
smoothSolver:  Solving for Uy, Initial residual = 1, Final residual = 0.0702329, No Iterations 2
GAMG:  Solving for p, Initial residual = 1, Final residual = 0.0835978, No Iterations 6
time step continuity errors : sum local = 0.00530106, global = -0.000786987, cumulative = -0.000786987
smoothSolver:  Solving for omega, Initial residual = 0.257235, Final residual = 0.0121001, No Iterations 3
smoothSolver:  Solving for k, Initial residual = 1, Final residual = 0.0789119, No Iterations 3
ExecutionTime = 0.05 s  ClockTime = 0 s

scalarTransport execute: age
smoothSolver:  Solving for age, Initial residual = 1, Final residual = 0.0899157, No Iterations 6

Time = 2

smoothSolver:  Solving for Ux, Initial residual = 0.56254, Final residual = 0.0477189, No Iterations 6
smoothSolver:  Solving for Uy, Initial residual = 0.280092, Final residual = 0.0192872, No Iterations 6
GAMG:  Solving for p, Initial residual = 0.0520466, Final residual = 0.00437784, No Iterations 3
time step continuity errors : sum local = 0.0603413, global = 0.00459199, cumulative = 0.003805
smoothSolver:  Solving for omega, Initial residual = 0.258824, Final residual = 0.0237265, No Iterations 3
smoothSolver:  Solving for k, Initial residual = 0.597042, Final residual = 0.054599, No Iterations 4
ExecutionTime = 0.06 s  ClockTime = 0 s

scalarTransport execute: age
smoothSolver:  Solving for age, Initial residual = 0.604108, Final residual = 0.0559516, No Iterations 8

Time = 3

smoothSolver:  Solving for Ux, Initial residual = 0.193802, Final residual = 0.0183243, No Iterations 5
smoothSolver:  Solving for Uy, Initial residual = 0.10569, Final residual = 0.00928344, No Iterations 5
GAMG:  Solving for p, Initial residual = 0.0546178, Final residual = 0.00349866, No Iterations 3
time step continuity errors : sum local = 0.0201377, global = 0.00313354, cumulative = 0.00693854
smoothSolver:  Solving for omega, Initial residual = 0.254559, Final residual = 0.0240252, No Iterations 4
smoothSolver:  Solving for k, Initial residual = 0.501677, Final residual = 0.0370521, No Iterations 5
ExecutionTime = 0.08 s  ClockTime = 0 s

scalarTransport execute: age
smoothSolver:  Solving for age, Initial residual = 0.4085, Final residual = 0.0360119, No Iterations 9

Time = 4

smoothSolver:  Solving for Ux, Initial residual = 0.0979874, Final residual = 0.00689214, No Iterations 5
smoothSolver:  Solving for Uy, Initial residual = 0.0512624, Final residual = 0.00503556, No Iterations 4
GAMG:  Solving for p, Initial residual = 0.0763114, Final residual = 0.00312267, No Iterations 3
time step continuity errors : sum local = 0.0101356, global = 0.000627082, cumulative = 0.00756563
smoothSolver:  Solving for omega, Initial residual = 0.143595, Final residual = 0.00967512, No Iterations 5
smoothSolver:  Solving for k, Initial residual = 0.425016, Final residual = 0.0354226, No Iterations 5
ExecutionTime = 0.08 s  ClockTime = 0 s

scalarTransport execute: age
smoothSolver:  Solving for age, Initial residual = 0.299173, Final residual = 0.0281224, No Iterations 8

Time = 5

smoothSolver:  Solving for Ux, Initial residual = 0.0599272, Final residual = 0.00503236, No Iterations 5
smoothSolver:  Solving for Uy, Initial residual = 0.0326985, Final residual = 0.00229052, No Iterations 5
GAMG:  Solving for p, Initial residual = 0.0776005, Final residual = 0.00325873, No Iterations 2
time step continuity errors : sum local = 0.00856438, global = -0.000383277, cumulative = 0.00718235
smoothSolver:  Solving for omega, Initial residual = 0.0997771, Final residual = 0.00737041, No Iterations 5
smoothSolver:  Solving for k, Initial residual = 0.330151, Final residual = 0.0297625, No Iterations 5
ExecutionTime = 0.09 s  ClockTime = 0 s

scalarTransport execute: age
smoothSolver:  Solving for age, Initial residual = 0.229871, Final residual = 0.0203374, No Iterations 9

Time = 6

smoothSolver:  Solving for Ux, Initial residual = 0.0418805, Final residual = 0.00276543, No Iterations 6
smoothSolver:  Solving for Uy, Initial residual = 0.0246509, Final residual = 0.00198079, No Iterations 5
GAMG:  Solving for p, Initial residual = 0.0627166, Final residual = 0.0028666, No Iterations 2
time step continuity errors : sum local = 0.00763568, global = -0.0010956, cumulative = 0.00608675
smoothSolver:  Solving for omega, Initial residual = 0.0781403, Final residual = 0.00618651, No Iterations 5
smoothSolver:  Solving for k, Initial residual = 0.265101, Final residual = 0.0253808, No Iterations 5
ExecutionTime = 0.12 s  ClockTime = 0 s

scalarTransport execute: age
smoothSolver:  Solving for age, Initial residual = 0.179631, Final residual = 0.0153783, No Iterations 10

Time = 7

smoothSolver:  Solving for Ux, Initial residual = 0.0349282, Final residual = 0.00230873, No Iterations 6
smoothSolver:  Solving for Uy, Initial residual = 0.020816, Final residual = 0.00177732, No Iterations 5
GAMG:  Solving for p, Initial residual = 0.0507051, Final residual = 0.00339618, No Iterations 2
time step continuity errors : sum local = 0.00921698, global = -0.00127792, cumulative = 0.00480883
smoothSolver:  Solving for omega, Initial residual = 0.0598045, Final residual = 0.00507572, No Iterations 5
smoothSolver:  Solving for k, Initial residual = 0.220103, Final residual = 0.021975, No Iterations 5
ExecutionTime = 0.13 s  ClockTime = 0 s

scalarTransport execute: age
smoothSolver:  Solving for age, Initial residual = 0.144893, Final residual = 0.0137457, No Iterations 10

Time = 8

smoothSolver:  Solving for Ux, Initial residual = 0.0294842, Final residual = 0.00280165, No Iterations 5
smoothSolver:  Solving for Uy, Initial residual = 0.0184692, Final residual = 0.00163418, No Iterations 5
GAMG:  Solving for p, Initial residual = 0.0404533, Final residual = 0.00317452, No Iterations 2
time step continuity errors : sum local = 0.00901001, global = -0.000930276, cumulative = 0.00387855
smoothSolver:  Solving for omega, Initial residual = 0.0479798, Final residual = 0.00422764, No Iterations 5
smoothSolver:  Solving for k, Initial residual = 0.187617, Final residual = 0.0123008, No Iterations 6
ExecutionTime = 0.14 s  ClockTime = 0 s

scalarTransport execute: age
smoothSolver:  Solving for age, Initial residual = 0.122455, Final residual = 0.0106605, No Iterations 11

Time = 9

smoothSolver:  Solving for Ux, Initial residual = 0.0275808, Final residual = 0.00265081, No Iterations 5
smoothSolver:  Solving for Uy, Initial residual = 0.0171193, Final residual = 0.00148372, No Iterations 5
GAMG:  Solving for p, Initial residual = 0.031405, Final residual = 0.00104492, No Iterations 2
time step continuity errors : sum local = 0.00315987, global = -0.00077255, cumulative = 0.003106
smoothSolver:  Solving for omega, Initial residual = 0.0400102, Final residual = 0.00362668, No Iterations 5
smoothSolver:  Solving for k, Initial residual = 0.163272, Final residual = 0.0110331, No Iterations 6
ExecutionTime = 0.15 s  ClockTime = 0 s

scalarTransport execute: age
smoothSolver:  Solving for age, Initial residual = 0.10628, Final residual = 0.00942961, No Iterations 11

Time = 10

smoothSolver:  Solving for Ux, Initial residual = 0.0245477, Final residual = 0.00243857, No Iterations 5
smoothSolver:  Solving for Uy, Initial residual = 0.0157077, Final residual = 0.00144029, No Iterations 5
GAMG:  Solving for p, Initial residual = 0.0264886, Final residual = 0.000868707, No Iterations 2
time step continuity errors : sum local = 0.00266603, global = -0.000606902, cumulative = 0.0024991
smoothSolver:  Solving for omega, Initial residual = 0.0336338, Final residual = 0.00313216, No Iterations 5
smoothSolver:  Solving for k, Initial residual = 0.144219, Final residual = 0.00999086, No Iterations 6
ExecutionTime = 0.17 s  ClockTime = 0 s

scalarTransport execute: age
smoothSolver:  Solving for age, Initial residual = 0.0925973, Final residual = 0.00842716, No Iterations 11

Time = 11

smoothSolver:  Solving for Ux, Initial residual = 0.0230912, Final residual = 0.00153313, No Iterations 6
smoothSolver:  Solving for Uy, Initial residual = 0.0149188, Final residual = 0.00140071, No Iterations 5
GAMG:  Solving for p, Initial residual = 0.0237286, Final residual = 0.000866447, No Iterations 2
time step continuity errors : sum local = 0.00269413, global = -0.000434642, cumulative = 0.00206446
smoothSolver:  Solving for omega, Initial residual = 0.0285627, Final residual = 0.00272204, No Iterations 5
smoothSolver:  Solving for k, Initial residual = 0.129011, Final residual = 0.00912014, No Iterations 6
ExecutionTime = 0.18 s  ClockTime = 0 s

scalarTransport execute: age
smoothSolver:  Solving for age, Initial residual = 0.0813224, Final residual = 0.00761617, No Iterations 11

Time = 12

smoothSolver:  Solving for Ux, Initial residual = 0.0217952, Final residual = 0.00146204, No Iterations 6
smoothSolver:  Solving for Uy, Initial residual = 0.0143092, Final residual = 0.00137247, No Iterations 5
GAMG:  Solving for p, Initial residual = 0.0218351, Final residual = 0.000867493, No Iterations 2
time step continuity errors : sum local = 0.00272293, global = -0.000264137, cumulative = 0.00180032
smoothSolver:  Solving for omega, Initial residual = 0.0245751, Final residual = 0.002384, No Iterations 5
smoothSolver:  Solving for k, Initial residual = 0.116635, Final residual = 0.00838513, No Iterations 6
ExecutionTime = 0.19 s  ClockTime = 0 s

scalarTransport execute: age
smoothSolver:  Solving for age, Initial residual = 0.0717783, Final residual = 0.00698301, No Iterations 11

Time = 13

smoothSolver:  Solving for Ux, Initial residual = 0.0205835, Final residual = 0.00139023, No Iterations 6
smoothSolver:  Solving for Uy, Initial residual = 0.0137853, Final residual = 0.00134781, No Iterations 5
GAMG:  Solving for p, Initial residual = 0.0205996, Final residual = 0.000854611, No Iterations 2
time step continuity errors : sum local = 0.0026895, global = -9.94475e-05, cumulative = 0.00170088
smoothSolver:  Solving for omega, Initial residual = 0.0213512, Final residual = 0.0021018, No Iterations 5
smoothSolver:  Solving for k, Initial residual = 0.106369, Final residual = 0.00775542, No Iterations 6
ExecutionTime = 0.21 s  ClockTime = 0 s

scalarTransport execute: age
smoothSolver:  Solving for age, Initial residual = 0.0628266, Final residual = 0.00539422, No Iterations 12

Time = 14

smoothSolver:  Solving for Ux, Initial residual = 0.019467, Final residual = 0.00131798, No Iterations 6
smoothSolver:  Solving for Uy, Initial residual = 0.0133997, Final residual = 0.0013262, No Iterations 5
GAMG:  Solving for p, Initial residual = 0.0195489, Final residual = 0.000832023, No Iterations 2
time step continuity errors : sum local = 0.002621, global = 5.78513e-05, cumulative = 0.00175873
smoothSolver:  Solving for omega, Initial residual = 0.0187286, Final residual = 0.00186476, No Iterations 5
smoothSolver:  Solving for k, Initial residual = 0.0977256, Final residual = 0.00721036, No Iterations 6
ExecutionTime = 0.22 s  ClockTime = 0 s

scalarTransport execute: age
smoothSolver:  Solving for age, Initial residual = 0.0543436, Final residual = 0.00482433, No Iterations 12

Time = 15

smoothSolver:  Solving for Ux, Initial residual = 0.0184211, Final residual = 0.001245, No Iterations 6
smoothSolver:  Solving for Uy, Initial residual = 0.0130848, Final residual = 0.00130726, No Iterations 5
GAMG:  Solving for p, Initial residual = 0.0186525, Final residual = 0.000805481, No Iterations 2
time step continuity errors : sum local = 0.00253452, global = 0.000193816, cumulative = 0.00195254
smoothSolver:  Solving for omega, Initial residual = 0.0165591, Final residual = 0.00106463, No Iterations 6
smoothSolver:  Solving for k, Initial residual = 0.0901526, Final residual = 0.00672124, No Iterations 6
ExecutionTime = 0.23 s  ClockTime = 0 s

scalarTransport execute: age
smoothSolver:  Solving for age, Initial residual = 0.0471008, Final residual = 0.004295, No Iterations 12

Time = 16

smoothSolver:  Solving for Ux, Initial residual = 0.0173879, Final residual = 0.00117108, No Iterations 6
smoothSolver:  Solving for Uy, Initial residual = 0.0128542, Final residual = 0.00084226, No Iterations 6
GAMG:  Solving for p, Initial residual = 0.0179653, Final residual = 0.000786825, No Iterations 2
time step continuity errors : sum local = 0.00246295, global = 0.000307088, cumulative = 0.00225963
smoothSolver:  Solving for omega, Initial residual = 0.0146268, Final residual = 0.000949833, No Iterations 6
smoothSolver:  Solving for k, Initial residual = 0.0835234, Final residual = 0.00628539, No Iterations 6
ExecutionTime = 0.24 s  ClockTime = 0 s

scalarTransport execute: age
smoothSolver:  Solving for age, Initial residual = 0.0411892, Final residual = 0.00381084, No Iterations 12

Time = 17

smoothSolver:  Solving for Ux, Initial residual = 0.016498, Final residual = 0.00110777, No Iterations 6
smoothSolver:  Solving for Uy, Initial residual = 0.0125965, Final residual = 0.000826189, No Iterations 6
GAMG:  Solving for p, Initial residual = 0.0173359, Final residual = 0.000804308, No Iterations 2
time step continuity errors : sum local = 0.00249688, global = 0.000382757, cumulative = 0.00264239
smoothSolver:  Solving for omega, Initial residual = 0.0130235, Final residual = 0.000852273, No Iterations 6
smoothSolver:  Solving for k, Initial residual = 0.0778004, Final residual = 0.00590074, No Iterations 6
ExecutionTime = 0.26 s  ClockTime = 0 s

scalarTransport execute: age
smoothSolver:  Solving for age, Initial residual = 0.0362468, Final residual = 0.00338324, No Iterations 12

Time = 18

smoothSolver:  Solving for Ux, Initial residual = 0.0156261, Final residual = 0.00104704, No Iterations 6
smoothSolver:  Solving for Uy, Initial residual = 0.012397, Final residual = 0.000812073, No Iterations 6
GAMG:  Solving for p, Initial residual = 0.0168079, Final residual = 0.000815959, No Iterations 2
time step continuity errors : sum local = 0.00250626, global = 0.000415031, cumulative = 0.00305742
smoothSolver:  Solving for omega, Initial residual = 0.0116815, Final residual = 0.000768872, No Iterations 6
smoothSolver:  Solving for k, Initial residual = 0.0728074, Final residual = 0.00555919, No Iterations 6
ExecutionTime = 0.27 s  ClockTime = 0 s

scalarTransport execute: age
smoothSolver:  Solving for age, Initial residual = 0.0321349, Final residual = 0.00300373, No Iterations 12

Time = 19

smoothSolver:  Solving for Ux, Initial residual = 0.0148099, Final residual = 0.000990865, No Iterations 6
smoothSolver:  Solving for Uy, Initial residual = 0.0122029, Final residual = 0.000798816, No Iterations 6
GAMG:  Solving for p, Initial residual = 0.0163208, Final residual = 0.000808545, No Iterations 2
time step continuity errors : sum local = 0.00245246, global = 0.000425763, cumulative = 0.00348318
smoothSolver:  Solving for omega, Initial residual = 0.0105436, Final residual = 0.000696851, No Iterations 6
smoothSolver:  Solving for k, Initial residual = 0.0683983, Final residual = 0.00525263, No Iterations 6
ExecutionTime = 0.28 s  ClockTime = 0 s

scalarTransport execute: age
smoothSolver:  Solving for age, Initial residual = 0.0286849, Final residual = 0.00267004, No Iterations 12

Time = 20

smoothSolver:  Solving for Ux, Initial residual = 0.0140535, Final residual = 0.000940073, No Iterations 6
smoothSolver:  Solving for Uy, Initial residual = 0.0119872, Final residual = 0.000785035, No Iterations 6
GAMG:  Solving for p, Initial residual = 0.0158454, Final residual = 0.000779557, No Iterations 2
time step continuity errors : sum local = 0.00233616, global = 0.000420069, cumulative = 0.00390325
smoothSolver:  Solving for omega, Initial residual = 0.00956531, Final residual = 0.000634243, No Iterations 6
smoothSolver:  Solving for k, Initial residual = 0.064471, Final residual = 0.00497584, No Iterations 6
ExecutionTime = 0.3 s  ClockTime = 0 s

scalarTransport execute: age
smoothSolver:  Solving for age, Initial residual = 0.0255784, Final residual = 0.00237174, No Iterations 12

Time = 21

smoothSolver:  Solving for Ux, Initial residual = 0.0133655, Final residual = 0.000893484, No Iterations 6
smoothSolver:  Solving for Uy, Initial residual = 0.0117635, Final residual = 0.000771236, No Iterations 6
GAMG:  Solving for p, Initial residual = 0.0152947, Final residual = 0.000743196, No Iterations 2
time step continuity errors : sum local = 0.00220152, global = 0.000403972, cumulative = 0.00430722
smoothSolver:  Solving for omega, Initial residual = 0.00871878, Final residual = 0.000579556, No Iterations 6
smoothSolver:  Solving for k, Initial residual = 0.0609478, Final residual = 0.00472422, No Iterations 6
ExecutionTime = 0.31 s  ClockTime = 0 s

scalarTransport execute: age
smoothSolver:  Solving for age, Initial residual = 0.0228745, Final residual = 0.00210052, No Iterations 12

Time = 22

smoothSolver:  Solving for Ux, Initial residual = 0.0127471, Final residual = 0.0008512, No Iterations 6
smoothSolver:  Solving for Uy, Initial residual = 0.0115289, Final residual = 0.00075708, No Iterations 6
GAMG:  Solving for p, Initial residual = 0.0146929, Final residual = 0.00070875, No Iterations 2
time step continuity errors : sum local = 0.00207758, global = 0.000384715, cumulative = 0.00469194
smoothSolver:  Solving for omega, Initial residual = 0.00798255, Final residual = 0.000531458, No Iterations 6
smoothSolver:  Solving for k, Initial residual = 0.0577687, Final residual = 0.00449461, No Iterations 6
ExecutionTime = 0.32 s  ClockTime = 0 s

scalarTransport execute: age
smoothSolver:  Solving for age, Initial residual = 0.0204931, Final residual = 0.00184906, No Iterations 12

Time = 23

smoothSolver:  Solving for Ux, Initial residual = 0.0121827, Final residual = 0.000811959, No Iterations 6
smoothSolver:  Solving for Uy, Initial residual = 0.0112856, Final residual = 0.000742911, No Iterations 6
GAMG:  Solving for p, Initial residual = 0.0139853, Final residual = 0.000680213, No Iterations 2
time step continuity errors : sum local = 0.00197361, global = 0.000365981, cumulative = 0.00505792
smoothSolver:  Solving for omega, Initial residual = 0.00732575, Final residual = 0.000488691, No Iterations 6
smoothSolver:  Solving for k, Initial residual = 0.0548762, Final residual = 0.00428356, No Iterations 6
ExecutionTime = 0.34 s  ClockTime = 0 s

scalarTransport execute: age
smoothSolver:  Solving for age, Initial residual = 0.0185241, Final residual = 0.00161322, No Iterations 12

Time = 24

smoothSolver:  Solving for Ux, Initial residual = 0.0116581, Final residual = 0.000776192, No Iterations 6
smoothSolver:  Solving for Uy, Initial residual = 0.0110356, Final residual = 0.000728254, No Iterations 6
GAMG:  Solving for p, Initial residual = 0.0132549, Final residual = 0.000657689, No Iterations 2
time step continuity errors : sum local = 0.00188906, global = 0.000349188, cumulative = 0.00540711
smoothSolver:  Solving for omega, Initial residual = 0.00673099, Final residual = 0.000450271, No Iterations 6
smoothSolver:  Solving for k, Initial residual = 0.0522382, Final residual = 0.0040892, No Iterations 6
ExecutionTime = 0.35 s  ClockTime = 0 s

scalarTransport execute: age
smoothSolver:  Solving for age, Initial residual = 0.0168596, Final residual = 0.00165915, No Iterations 11

Time = 25

smoothSolver:  Solving for Ux, Initial residual = 0.0111775, Final residual = 0.000744589, No Iterations 6
smoothSolver:  Solving for Uy, Initial residual = 0.0107809, Final residual = 0.000712798, No Iterations 6
GAMG:  Solving for p, Initial residual = 0.0125221, Final residual = 0.000632807, No Iterations 2
time step continuity errors : sum local = 0.00179985, global = 0.000334132, cumulative = 0.00574124
smoothSolver:  Solving for omega, Initial residual = 0.00622662, Final residual = 0.00041642, No Iterations 6
smoothSolver:  Solving for k, Initial residual = 0.0498098, Final residual = 0.00390859, No Iterations 6
ExecutionTime = 0.36 s  ClockTime = 0 s

scalarTransport execute: age
smoothSolver:  Solving for age, Initial residual = 0.0153497, Final residual = 0.00143898, No Iterations 11

Time = 26

smoothSolver:  Solving for Ux, Initial residual = 0.0107467, Final residual = 0.000716612, No Iterations 6
smoothSolver:  Solving for Uy, Initial residual = 0.0105216, Final residual = 0.000695783, No Iterations 6
GAMG:  Solving for p, Initial residual = 0.0118868, Final residual = 0.000606648, No Iterations 2
time step continuity errors : sum local = 0.00170933, global = 0.000320774, cumulative = 0.00606201
smoothSolver:  Solving for omega, Initial residual = 0.00577804, Final residual = 0.000386229, No Iterations 6
smoothSolver:  Solving for k, Initial residual = 0.047566, Final residual = 0.00374028, No Iterations 6
ExecutionTime = 0.38 s  ClockTime = 0 s

scalarTransport execute: age
smoothSolver:  Solving for age, Initial residual = 0.0140943, Final residual = 0.00125242, No Iterations 11

Time = 27

smoothSolver:  Solving for Ux, Initial residual = 0.0103576, Final residual = 0.000692464, No Iterations 6
smoothSolver:  Solving for Uy, Initial residual = 0.0102659, Final residual = 0.000677435, No Iterations 6
GAMG:  Solving for p, Initial residual = 0.0116114, Final residual = 0.000580857, No Iterations 2
time step continuity errors : sum local = 0.00162257, global = 0.000309442, cumulative = 0.00637146
smoothSolver:  Solving for omega, Initial residual = 0.00537622, Final residual = 0.000359083, No Iterations 6
smoothSolver:  Solving for k, Initial residual = 0.0454738, Final residual = 0.00358211, No Iterations 6
ExecutionTime = 0.39 s  ClockTime = 0 s

scalarTransport execute: age
smoothSolver:  Solving for age, Initial residual = 0.0130278, Final residual = 0.00110561, No Iterations 11

Time = 28

smoothSolver:  Solving for Ux, Initial residual = 0.0100109, Final residual = 0.000671634, No Iterations 6
smoothSolver:  Solving for Uy, Initial residual = 0.00999313, Final residual = 0.000656752, No Iterations 6
GAMG:  Solving for p, Initial residual = 0.0115313, Final residual = 0.000557822, No Iterations 2
time step continuity errors : sum local = 0.00154647, global = 0.000300351, cumulative = 0.00667181
smoothSolver:  Solving for omega, Initial residual = 0.00502008, Final residual = 0.000334702, No Iterations 6
smoothSolver:  Solving for k, Initial residual = 0.0435175, Final residual = 0.0034333, No Iterations 6
ExecutionTime = 0.4 s  ClockTime = 0 s

scalarTransport execute: age
smoothSolver:  Solving for age, Initial residual = 0.0121556, Final residual = 0.00117545, No Iterations 10

Time = 29

smoothSolver:  Solving for Ux, Initial residual = 0.00972462, Final residual = 0.000653884, No Iterations 6
smoothSolver:  Solving for Uy, Initial residual = 0.009713, Final residual = 0.000634338, No Iterations 6
GAMG:  Solving for p, Initial residual = 0.0116163, Final residual = 0.000543213, No Iterations 2
time step continuity errors : sum local = 0.00149661, global = 0.000293534, cumulative = 0.00696534
smoothSolver:  Solving for omega, Initial residual = 0.00470292, Final residual = 0.000312682, No Iterations 6
smoothSolver:  Solving for k, Initial residual = 0.0416851, Final residual = 0.00329308, No Iterations 6
ExecutionTime = 0.42 s  ClockTime = 0 s

scalarTransport execute: age
smoothSolver:  Solving for age, Initial residual = 0.0114598, Final residual = 0.00108862, No Iterations 10

Time = 30

smoothSolver:  Solving for Ux, Initial residual = 0.00951425, Final residual = 0.000639538, No Iterations 6
smoothSolver:  Solving for Uy, Initial residual = 0.00940352, Final residual = 0.000939708, No Iterations 5
GAMG:  Solving for p, Initial residual = 0.0116173, Final residual = 0.000531833, No Iterations 2
time step continuity errors : sum local = 0.00145495, global = 0.000278873, cumulative = 0.00724421
smoothSolver:  Solving for omega, Initial residual = 0.00441758, Final residual = 0.000292725, No Iterations 6
smoothSolver:  Solving for k, Initial residual = 0.0399572, Final residual = 0.00316031, No Iterations 6
ExecutionTime = 0.43 s  ClockTime = 1 s

scalarTransport execute: age
smoothSolver:  Solving for age, Initial residual = 0.0108737, Final residual = 0.00102385, No Iterations 10

Time = 31

smoothSolver:  Solving for Ux, Initial residual = 0.00931961, Final residual = 0.000625469, No Iterations 6
smoothSolver:  Solving for Uy, Initial residual = 0.00914213, Final residual = 0.000909464, No Iterations 5
GAMG:  Solving for p, Initial residual = 0.0114402, Final residual = 0.000533101, No Iterations 2
time step continuity errors : sum local = 0.00144731, global = 0.000264454, cumulative = 0.00750867
smoothSolver:  Solving for omega, Initial residual = 0.00415889, Final residual = 0.000274568, No Iterations 6
smoothSolver:  Solving for k, Initial residual = 0.038321, Final residual = 0.00303424, No Iterations 6
ExecutionTime = 0.44 s  ClockTime = 1 s

scalarTransport execute: age
smoothSolver:  Solving for age, Initial residual = 0.0103268, Final residual = 0.00097788, No Iterations 10

Time = 32

smoothSolver:  Solving for Ux, Initial residual = 0.00919004, Final residual = 0.000614771, No Iterations 6
smoothSolver:  Solving for Uy, Initial residual = 0.00882621, Final residual = 0.000874261, No Iterations 5
GAMG:  Solving for p, Initial residual = 0.0112054, Final residual = 0.000533606, No Iterations 2
time step continuity errors : sum local = 0.00144045, global = 0.000252859, cumulative = 0.00776153
smoothSolver:  Solving for omega, Initial residual = 0.00392183, Final residual = 0.000257979, No Iterations 6
smoothSolver:  Solving for k, Initial residual = 0.0367702, Final residual = 0.0029145, No Iterations 6
ExecutionTime = 0.45 s  ClockTime = 1 s

scalarTransport execute: age
smoothSolver:  Solving for age, Initial residual = 0.00991242, Final residual = 0.000954428, No Iterations 10

Time = 33

smoothSolver:  Solving for Ux, Initial residual = 0.00910357, Final residual = 0.00060705, No Iterations 6
smoothSolver:  Solving for Uy, Initial residual = 0.00847263, Final residual = 0.000834885, No Iterations 5
GAMG:  Solving for p, Initial residual = 0.0108382, Final residual = 0.000524087, No Iterations 2
time step continuity errors : sum local = 0.00140782, global = 0.000242396, cumulative = 0.00800392
smoothSolver:  Solving for omega, Initial residual = 0.00370609, Final residual = 0.000242785, No Iterations 6
smoothSolver:  Solving for k, Initial residual = 0.0352961, Final residual = 0.00280047, No Iterations 6
ExecutionTime = 0.47 s  ClockTime = 1 s

scalarTransport execute: age
smoothSolver:  Solving for age, Initial residual = 0.0095574, Final residual = 0.000948742, No Iterations 10

Time = 34

smoothSolver:  Solving for Ux, Initial residual = 0.00905002, Final residual = 0.000602241, No Iterations 6
smoothSolver:  Solving for Uy, Initial residual = 0.00808534, Final residual = 0.000793143, No Iterations 5
GAMG:  Solving for p, Initial residual = 0.0104984, Final residual = 0.000507004, No Iterations 2
time step continuity errors : sum local = 0.00135606, global = 0.000233261, cumulative = 0.00823719
smoothSolver:  Solving for omega, Initial residual = 0.0035176, Final residual = 0.000228638, No Iterations 6
smoothSolver:  Solving for k, Initial residual = 0.0338968, Final residual = 0.00269203, No Iterations 6
ExecutionTime = 0.48 s  ClockTime = 1 s

scalarTransport execute: age
smoothSolver:  Solving for age, Initial residual = 0.00932481, Final residual = 0.000813351, No Iterations 11

Time = 35

smoothSolver:  Solving for Ux, Initial residual = 0.00901161, Final residual = 0.00059939, No Iterations 6
smoothSolver:  Solving for Uy, Initial residual = 0.00767628, Final residual = 0.000751038, No Iterations 5
GAMG:  Solving for p, Initial residual = 0.0100532, Final residual = 0.000484549, No Iterations 2
time step continuity errors : sum local = 0.00129106, global = 0.000225344, cumulative = 0.00846253
smoothSolver:  Solving for omega, Initial residual = 0.00333759, Final residual = 0.000333542, No Iterations 5
smoothSolver:  Solving for k, Initial residual = 0.0325912, Final residual = 0.00259069, No Iterations 6
ExecutionTime = 0.49 s  ClockTime = 1 s

scalarTransport execute: age
smoothSolver:  Solving for age, Initial residual = 0.00917181, Final residual = 0.00081281, No Iterations 11

Time = 36

smoothSolver:  Solving for Ux, Initial residual = 0.00899395, Final residual = 0.000598899, No Iterations 6
smoothSolver:  Solving for Uy, Initial residual = 0.00727586, Final residual = 0.00070983, No Iterations 5
GAMG:  Solving for p, Initial residual = 0.00967385, Final residual = 0.000469613, No Iterations 2
time step continuity errors : sum local = 0.00124678, global = 0.000218666, cumulative = 0.0086812
smoothSolver:  Solving for omega, Initial residual = 0.00318627, Final residual = 0.000316758, No Iterations 5
smoothSolver:  Solving for k, Initial residual = 0.0313627, Final residual = 0.00249507, No Iterations 6
ExecutionTime = 0.51 s  ClockTime = 1 s

scalarTransport execute: age
smoothSolver:  Solving for age, Initial residual = 0.00900016, Final residual = 0.000809673, No Iterations 11

Time = 37

smoothSolver:  Solving for Ux, Initial residual = 0.00897715, Final residual = 0.000598849, No Iterations 6
smoothSolver:  Solving for Uy, Initial residual = 0.00689523, Final residual = 0.000670248, No Iterations 5
GAMG:  Solving for p, Initial residual = 0.00942908, Final residual = 0.000465012, No Iterations 2
time step continuity errors : sum local = 0.00122931, global = 0.000213249, cumulative = 0.00889444
smoothSolver:  Solving for omega, Initial residual = 0.00304427, Final residual = 0.000300917, No Iterations 5
smoothSolver:  Solving for k, Initial residual = 0.030187, Final residual = 0.0024036, No Iterations 6
ExecutionTime = 0.52 s  ClockTime = 1 s

scalarTransport execute: age
smoothSolver:  Solving for age, Initial residual = 0.0088313, Final residual = 0.000805235, No Iterations 11

Time = 38

smoothSolver:  Solving for Ux, Initial residual = 0.0089669, Final residual = 0.000598813, No Iterations 6
smoothSolver:  Solving for Uy, Initial residual = 0.00654389, Final residual = 0.000632991, No Iterations 5
GAMG:  Solving for p, Initial residual = 0.00929381, Final residual = 0.000474066, No Iterations 2
time step continuity errors : sum local = 0.00124732, global = 0.000210339, cumulative = 0.00910478
smoothSolver:  Solving for omega, Initial residual = 0.00290802, Final residual = 0.000285923, No Iterations 5
smoothSolver:  Solving for k, Initial residual = 0.0290643, Final residual = 0.00231603, No Iterations 6
ExecutionTime = 0.53 s  ClockTime = 1 s

scalarTransport execute: age
smoothSolver:  Solving for age, Initial residual = 0.00866449, Final residual = 0.000798858, No Iterations 11

Time = 39

smoothSolver:  Solving for Ux, Initial residual = 0.0089757, Final residual = 0.000598711, No Iterations 6
smoothSolver:  Solving for Uy, Initial residual = 0.0062154, Final residual = 0.000598181, No Iterations 5
GAMG:  Solving for p, Initial residual = 0.00921206, Final residual = 0.000496461, No Iterations 2
time step continuity errors : sum local = 0.00130056, global = 0.000209975, cumulative = 0.00931476
smoothSolver:  Solving for omega, Initial residual = 0.00277652, Final residual = 0.000271713, No Iterations 5
smoothSolver:  Solving for k, Initial residual = 0.0279945, Final residual = 0.00223238, No Iterations 6
ExecutionTime = 0.54 s  ClockTime = 1 s

scalarTransport execute: age
smoothSolver:  Solving for age, Initial residual = 0.00847408, Final residual = 0.000792026, No Iterations 11

Time = 40

smoothSolver:  Solving for Ux, Initial residual = 0.00901647, Final residual = 0.000598638, No Iterations 6
smoothSolver:  Solving for Uy, Initial residual = 0.00590783, Final residual = 0.00056624, No Iterations 5
GAMG:  Solving for p, Initial residual = 0.00917709, Final residual = 0.000534238, No Iterations 2
time step continuity errors : sum local = 0.00139377, global = 0.000217216, cumulative = 0.00953197
smoothSolver:  Solving for omega, Initial residual = 0.00265641, Final residual = 0.000258215, No Iterations 5
smoothSolver:  Solving for k, Initial residual = 0.0269774, Final residual = 0.00215244, No Iterations 6
ExecutionTime = 0.56 s  ClockTime = 1 s

scalarTransport execute: age
smoothSolver:  Solving for age, Initial residual = 0.00827301, Final residual = 0.000789094, No Iterations 11

Time = 41

smoothSolver:  Solving for Ux, Initial residual = 0.00906581, Final residual = 0.000598978, No Iterations 6
smoothSolver:  Solving for Uy, Initial residual = 0.00562603, Final residual = 0.000537377, No Iterations 5
GAMG:  Solving for p, Initial residual = 0.00920228, Final residual = 0.000570906, No Iterations 2
time step continuity errors : sum local = 0.00148426, global = 0.000228247, cumulative = 0.00976022
smoothSolver:  Solving for omega, Initial residual = 0.00254495, Final residual = 0.00024532, No Iterations 5
smoothSolver:  Solving for k, Initial residual = 0.026014, Final residual = 0.00207609, No Iterations 6
ExecutionTime = 0.57 s  ClockTime = 1 s

scalarTransport execute: age
smoothSolver:  Solving for age, Initial residual = 0.00813477, Final residual = 0.000783341, No Iterations 11

Time = 42

smoothSolver:  Solving for Ux, Initial residual = 0.00913609, Final residual = 0.000599825, No Iterations 6
smoothSolver:  Solving for Uy, Initial residual = 0.00538541, Final residual = 0.000511843, No Iterations 5
GAMG:  Solving for p, Initial residual = 0.00932673, Final residual = 0.000608364, No Iterations 2
time step continuity errors : sum local = 0.00157669, global = 0.000240456, cumulative = 0.0100007
smoothSolver:  Solving for omega, Initial residual = 0.0024349, Final residual = 0.000233227, No Iterations 5
smoothSolver:  Solving for k, Initial residual = 0.0250957, Final residual = 0.00200308, No Iterations 6
ExecutionTime = 0.58 s  ClockTime = 1 s

scalarTransport execute: age
smoothSolver:  Solving for age, Initial residual = 0.0080007, Final residual = 0.00077692, No Iterations 11

Time = 43

smoothSolver:  Solving for Ux, Initial residual = 0.00920635, Final residual = 0.000601109, No Iterations 6
smoothSolver:  Solving for Uy, Initial residual = 0.00517956, Final residual = 0.000489925, No Iterations 5
GAMG:  Solving for p, Initial residual = 0.00947623, Final residual = 0.000642431, No Iterations 2
time step continuity errors : sum local = 0.00166077, global = 0.00025224, cumulative = 0.0102529
smoothSolver:  Solving for omega, Initial residual = 0.00232736, Final residual = 0.000221574, No Iterations 5
smoothSolver:  Solving for k, Initial residual = 0.0242203, Final residual = 0.00193328, No Iterations 6
ExecutionTime = 0.6 s  ClockTime = 1 s

scalarTransport execute: age
smoothSolver:  Solving for age, Initial residual = 0.00789066, Final residual = 0.000778526, No Iterations 11

Time = 44

smoothSolver:  Solving for Ux, Initial residual = 0.00927598, Final residual = 0.000602983, No Iterations 6
smoothSolver:  Solving for Uy, Initial residual = 0.00500939, Final residual = 0.000472006, No Iterations 5
GAMG:  Solving for p, Initial residual = 0.00959073, Final residual = 0.00067019, No Iterations 2
time step continuity errors : sum local = 0.00173001, global = 0.000261933, cumulative = 0.0105149
smoothSolver:  Solving for omega, Initial residual = 0.00223361, Final residual = 0.00021041, No Iterations 5
smoothSolver:  Solving for k, Initial residual = 0.0233874, Final residual = 0.00186654, No Iterations 6
ExecutionTime = 0.61 s  ClockTime = 1 s

scalarTransport execute: age
smoothSolver:  Solving for age, Initial residual = 0.00782586, Final residual = 0.000678215, No Iterations 12

Time = 45

smoothSolver:  Solving for Ux, Initial residual = 0.00934776, Final residual = 0.000933972, No Iterations 5
smoothSolver:  Solving for Uy, Initial residual = 0.00487761, Final residual = 0.000458124, No Iterations 5
GAMG:  Solving for p, Initial residual = 0.00958635, Final residual = 0.000684254, No Iterations 2
time step continuity errors : sum local = 0.00176492, global = 0.000268244, cumulative = 0.0107831
smoothSolver:  Solving for omega, Initial residual = 0.00214373, Final residual = 0.000200298, No Iterations 5
smoothSolver:  Solving for k, Initial residual = 0.0225958, Final residual = 0.00180284, No Iterations 6
ExecutionTime = 0.62 s  ClockTime = 1 s

scalarTransport execute: age
smoothSolver:  Solving for age, Initial residual = 0.00773293, Final residual = 0.000690806, No Iterations 12

Time = 46

smoothSolver:  Solving for Ux, Initial residual = 0.00946781, Final residual = 0.000943789, No Iterations 5
smoothSolver:  Solving for Uy, Initial residual = 0.00473883, Final residual = 0.000443861, No Iterations 5
GAMG:  Solving for p, Initial residual = 0.0096889, Final residual = 0.000702992, No Iterations 2
time step continuity errors : sum local = 0.00181266, global = 0.000271363, cumulative = 0.0110545
smoothSolver:  Solving for omega, Initial residual = 0.002065, Final residual = 0.000190914, No Iterations 5
smoothSolver:  Solving for k, Initial residual = 0.0218421, Final residual = 0.00174189, No Iterations 6
ExecutionTime = 0.64 s  ClockTime = 1 s

scalarTransport execute: age
smoothSolver:  Solving for age, Initial residual = 0.00765961, Final residual = 0.000697877, No Iterations 12

Time = 47

smoothSolver:  Solving for Ux, Initial residual = 0.00959509, Final residual = 0.000954571, No Iterations 5
smoothSolver:  Solving for Uy, Initial residual = 0.00466195, Final residual = 0.000435624, No Iterations 5
GAMG:  Solving for p, Initial residual = 0.00978151, Final residual = 0.000727181, No Iterations 2
time step continuity errors : sum local = 0.00187568, global = 0.000272219, cumulative = 0.0113267
smoothSolver:  Solving for omega, Initial residual = 0.00199196, Final residual = 0.000182151, No Iterations 5
smoothSolver:  Solving for k, Initial residual = 0.0211233, Final residual = 0.00168364, No Iterations 6
ExecutionTime = 0.65 s  ClockTime = 1 s

scalarTransport execute: age
smoothSolver:  Solving for age, Initial residual = 0.00762619, Final residual = 0.000703871, No Iterations 12

Time = 48

smoothSolver:  Solving for Ux, Initial residual = 0.0097199, Final residual = 0.000966067, No Iterations 5
smoothSolver:  Solving for Uy, Initial residual = 0.00463435, Final residual = 0.000432719, No Iterations 5
GAMG:  Solving for p, Initial residual = 0.00984224, Final residual = 0.000751234, No Iterations 2
time step continuity errors : sum local = 0.00193949, global = 0.000271733, cumulative = 0.0115984
smoothSolver:  Solving for omega, Initial residual = 0.00192167, Final residual = 0.000173932, No Iterations 5
smoothSolver:  Solving for k, Initial residual = 0.0204363, Final residual = 0.00162791, No Iterations 6
ExecutionTime = 0.66 s  ClockTime = 1 s

scalarTransport execute: age
smoothSolver:  Solving for age, Initial residual = 0.00764005, Final residual = 0.000712482, No Iterations 12

Time = 49

smoothSolver:  Solving for Ux, Initial residual = 0.00983252, Final residual = 0.000978203, No Iterations 5
smoothSolver:  Solving for Uy, Initial residual = 0.00464714, Final residual = 0.000435634, No Iterations 5
GAMG:  Solving for p, Initial residual = 0.00988194, Final residual = 0.000773471, No Iterations 2
time step continuity errors : sum local = 0.00199932, global = 0.000270492, cumulative = 0.0118689
smoothSolver:  Solving for omega, Initial residual = 0.00186249, Final residual = 0.000166272, No Iterations 5
smoothSolver:  Solving for k, Initial residual = 0.0197752, Final residual = 0.00157447, No Iterations 6
ExecutionTime = 0.67 s  ClockTime = 1 s

scalarTransport execute: age
smoothSolver:  Solving for age, Initial residual = 0.0077028, Final residual = 0.000729916, No Iterations 12

Time = 50

smoothSolver:  Solving for Ux, Initial residual = 0.00994427, Final residual = 0.000991119, No Iterations 5
smoothSolver:  Solving for Uy, Initial residual = 0.00469181, Final residual = 0.000443718, No Iterations 5
GAMG:  Solving for p, Initial residual = 0.00997001, Final residual = 0.000792747, No Iterations 2
time step continuity errors : sum local = 0.00205158, global = 0.000269198, cumulative = 0.0121381
smoothSolver:  Solving for omega, Initial residual = 0.00180946, Final residual = 0.00015909, No Iterations 5
smoothSolver:  Solving for k, Initial residual = 0.0191428, Final residual = 0.00152321, No Iterations 6
ExecutionTime = 0.69 s  ClockTime = 1 s

scalarTransport execute: age
smoothSolver:  Solving for age, Initial residual = 0.00783062, Final residual = 0.000745726, No Iterations 12

Time = 51

smoothSolver:  Solving for Ux, Initial residual = 0.0100479, Final residual = 0.000652225, No Iterations 6
smoothSolver:  Solving for Uy, Initial residual = 0.00476495, Final residual = 0.000455954, No Iterations 5
GAMG:  Solving for p, Initial residual = 0.0101662, Final residual = 0.000818981, No Iterations 2
time step continuity errors : sum local = 0.00212206, global = 0.000269257, cumulative = 0.0124074
smoothSolver:  Solving for omega, Initial residual = 0.0017609, Final residual = 0.000152352, No Iterations 5
smoothSolver:  Solving for k, Initial residual = 0.0185309, Final residual = 0.00147374, No Iterations 6
ExecutionTime = 0.7 s  ClockTime = 1 s

scalarTransport execute: age
smoothSolver:  Solving for age, Initial residual = 0.00814576, Final residual = 0.000775414, No Iterations 12

Time = 52

smoothSolver:  Solving for Ux, Initial residual = 0.0101245, Final residual = 0.000659164, No Iterations 6
smoothSolver:  Solving for Uy, Initial residual = 0.00491372, Final residual = 0.000476851, No Iterations 5
GAMG:  Solving for p, Initial residual = 0.0104507, Final residual = 0.000830807, No Iterations 2
time step continuity errors : sum local = 0.00215709, global = 0.000269901, cumulative = 0.0126773
smoothSolver:  Solving for omega, Initial residual = 0.0017156, Final residual = 0.000146167, No Iterations 5
smoothSolver:  Solving for k, Initial residual = 0.0179465, Final residual = 0.00142641, No Iterations 6
ExecutionTime = 0.71 s  ClockTime = 1 s

scalarTransport execute: age
smoothSolver:  Solving for age, Initial residual = 0.00853269, Final residual = 0.000817957, No Iterations 12

Time = 53

smoothSolver:  Solving for Ux, Initial residual = 0.0102016, Final residual = 0.000667279, No Iterations 6
smoothSolver:  Solving for Uy, Initial residual = 0.00506513, Final residual = 0.000498744, No Iterations 5
GAMG:  Solving for p, Initial residual = 0.0109358, Final residual = 0.000830818, No Iterations 2
time step continuity errors : sum local = 0.0021663, global = 0.000270138, cumulative = 0.0129474
smoothSolver:  Solving for omega, Initial residual = 0.0016676, Final residual = 0.0001405, No Iterations 5
smoothSolver:  Solving for k, Initial residual = 0.0173875, Final residual = 0.00138102, No Iterations 6
ExecutionTime = 0.73 s  ClockTime = 1 s

scalarTransport execute: age
smoothSolver:  Solving for age, Initial residual = 0.0089526, Final residual = 0.000817414, No Iterations 15

Time = 54

smoothSolver:  Solving for Ux, Initial residual = 0.0102879, Final residual = 0.000677175, No Iterations 6
smoothSolver:  Solving for Uy, Initial residual = 0.00521093, Final residual = 0.000339246, No Iterations 6
GAMG:  Solving for p, Initial residual = 0.0118984, Final residual = 0.000823228, No Iterations 2
time step continuity errors : sum local = 0.00216377, global = 0.000271743, cumulative = 0.0132191
smoothSolver:  Solving for omega, Initial residual = 0.00163124, Final residual = 0.000135312, No Iterations 5
smoothSolver:  Solving for k, Initial residual = 0.0168573, Final residual = 0.00133739, No Iterations 6
ExecutionTime = 0.74 s  ClockTime = 1 s

scalarTransport execute: age
smoothSolver:  Solving for age, Initial residual = 0.0109845, Final residual = 0.00100733, No Iterations 13

Time = 55

smoothSolver:  Solving for Ux, Initial residual = 0.0104551, Final residual = 0.000689351, No Iterations 6
smoothSolver:  Solving for Uy, Initial residual = 0.00532263, Final residual = 0.00034928, No Iterations 6
GAMG:  Solving for p, Initial residual = 0.0134993, Final residual = 0.000814191, No Iterations 2
time step continuity errors : sum local = 0.0022241, global = 0.000276581, cumulative = 0.0134957
smoothSolver:  Solving for omega, Initial residual = 0.00159926, Final residual = 0.000130163, No Iterations 5
smoothSolver:  Solving for k, Initial residual = 0.0163461, Final residual = 0.00129536, No Iterations 6
ExecutionTime = 0.75 s  ClockTime = 1 s

scalarTransport execute: age
smoothSolver:  Solving for age, Initial residual = 0.0116753, Final residual = 0.00113638, No Iterations 12

Time = 56

smoothSolver:  Solving for Ux, Initial residual = 0.0106076, Final residual = 0.00070051, No Iterations 6
smoothSolver:  Solving for Uy, Initial residual = 0.00547637, Final residual = 0.00036043, No Iterations 6
GAMG:  Solving for p, Initial residual = 0.013373, Final residual = 0.000874006, No Iterations 2
time step continuity errors : sum local = 0.00231542, global = 0.000285764, cumulative = 0.0137815
smoothSolver:  Solving for omega, Initial residual = 0.00154422, Final residual = 0.00012496, No Iterations 5
smoothSolver:  Solving for k, Initial residual = 0.0158548, Final residual = 0.00125507, No Iterations 6
ExecutionTime = 0.76 s  ClockTime = 1 s

scalarTransport execute: age
smoothSolver:  Solving for age, Initial residual = 0.0120332, Final residual = 0.00108073, No Iterations 12

Time = 57

smoothSolver:  Solving for Ux, Initial residual = 0.0107628, Final residual = 0.000710208, No Iterations 6
smoothSolver:  Solving for Uy, Initial residual = 0.00565473, Final residual = 0.000373552, No Iterations 6
GAMG:  Solving for p, Initial residual = 0.0134002, Final residual = 0.000912206, No Iterations 2
time step continuity errors : sum local = 0.00237298, global = 0.000294747, cumulative = 0.0140762
smoothSolver:  Solving for omega, Initial residual = 0.00151129, Final residual = 0.000119294, No Iterations 5
smoothSolver:  Solving for k, Initial residual = 0.0153787, Final residual = 0.00121647, No Iterations 6
ExecutionTime = 0.78 s  ClockTime = 1 s

scalarTransport execute: age
smoothSolver:  Solving for age, Initial residual = 0.0120695, Final residual = 0.00110942, No Iterations 12

Time = 58

smoothSolver:  Solving for Ux, Initial residual = 0.0108962, Final residual = 0.000719338, No Iterations 6
smoothSolver:  Solving for Uy, Initial residual = 0.0058792, Final residual = 0.000388769, No Iterations 6
GAMG:  Solving for p, Initial residual = 0.0130786, Final residual = 0.000934583, No Iterations 2
time step continuity errors : sum local = 0.00240699, global = 0.000296802, cumulative = 0.014373
smoothSolver:  Solving for omega, Initial residual = 0.00145529, Final residual = 0.000114758, No Iterations 5
smoothSolver:  Solving for k, Initial residual = 0.014922, Final residual = 0.00117937, No Iterations 6
ExecutionTime = 0.79 s  ClockTime = 1 s

scalarTransport execute: age
smoothSolver:  Solving for age, Initial residual = 0.0123696, Final residual = 0.00115231, No Iterations 12

Time = 59

smoothSolver:  Solving for Ux, Initial residual = 0.0110369, Final residual = 0.000729544, No Iterations 6
smoothSolver:  Solving for Uy, Initial residual = 0.00609616, Final residual = 0.000403777, No Iterations 6
GAMG:  Solving for p, Initial residual = 0.0130095, Final residual = 0.000972583, No Iterations 2
time step continuity errors : sum local = 0.00248814, global = 0.000296228, cumulative = 0.0146693
smoothSolver:  Solving for omega, Initial residual = 0.00141266, Final residual = 0.000110635, No Iterations 5
smoothSolver:  Solving for k, Initial residual = 0.0144886, Final residual = 0.00114367, No Iterations 6
ExecutionTime = 0.8 s  ClockTime = 1 s

scalarTransport execute: age
smoothSolver:  Solving for age, Initial residual = 0.0130585, Final residual = 0.00119469, No Iterations 12

Time = 60

smoothSolver:  Solving for Ux, Initial residual = 0.0111251, Final residual = 0.000738346, No Iterations 6
smoothSolver:  Solving for Uy, Initial residual = 0.00625473, Final residual = 0.000417361, No Iterations 6
GAMG:  Solving for p, Initial residual = 0.0129599, Final residual = 0.00100124, No Iterations 2
time step continuity errors : sum local = 0.00254913, global = 0.000293647, cumulative = 0.0149629
smoothSolver:  Solving for omega, Initial residual = 0.00137769, Final residual = 0.000106513, No Iterations 5
smoothSolver:  Solving for k, Initial residual = 0.0140705, Final residual = 0.00110933, No Iterations 6
ExecutionTime = 0.82 s  ClockTime = 1 s

scalarTransport execute: age
smoothSolver:  Solving for age, Initial residual = 0.0137924, Final residual = 0.00122341, No Iterations 12

Time = 61

smoothSolver:  Solving for Ux, Initial residual = 0.011184, Final residual = 0.000744764, No Iterations 6
smoothSolver:  Solving for Uy, Initial residual = 0.00640099, Final residual = 0.000429892, No Iterations 6
GAMG:  Solving for p, Initial residual = 0.0127961, Final residual = 0.00101101, No Iterations 2
time step continuity errors : sum local = 0.00256552, global = 0.000289226, cumulative = 0.0152521
smoothSolver:  Solving for omega, Initial residual = 0.00133213, Final residual = 0.000102525, No Iterations 5
smoothSolver:  Solving for k, Initial residual = 0.0136637, Final residual = 0.00107625, No Iterations 6
ExecutionTime = 0.83 s  ClockTime = 1 s

scalarTransport execute: age
smoothSolver:  Solving for age, Initial residual = 0.0145347, Final residual = 0.0012838, No Iterations 12

Time = 62

smoothSolver:  Solving for Ux, Initial residual = 0.0111849, Final residual = 0.000747611, No Iterations 6
smoothSolver:  Solving for Uy, Initial residual = 0.00651294, Final residual = 0.000441255, No Iterations 6
GAMG:  Solving for p, Initial residual = 0.0120365, Final residual = 0.000961161, No Iterations 2
time step continuity errors : sum local = 0.00241915, global = 0.000281019, cumulative = 0.0155332
smoothSolver:  Solving for omega, Initial residual = 0.00127457, Final residual = 9.87325e-05, No Iterations 5
smoothSolver:  Solving for k, Initial residual = 0.0132755, Final residual = 0.00104463, No Iterations 6
ExecutionTime = 0.84 s  ClockTime = 1 s

scalarTransport execute: age
smoothSolver:  Solving for age, Initial residual = 0.0155203, Final residual = 0.00155068, No Iterations 11

Time = 63

smoothSolver:  Solving for Ux, Initial residual = 0.011125, Final residual = 0.00074841, No Iterations 6
smoothSolver:  Solving for Uy, Initial residual = 0.00658158, Final residual = 0.000451857, No Iterations 6
GAMG:  Solving for p, Initial residual = 0.0114279, Final residual = 0.000933974, No Iterations 2
time step continuity errors : sum local = 0.0023362, global = 0.000275796, cumulative = 0.0158089
smoothSolver:  Solving for omega, Initial residual = 0.00123429, Final residual = 9.51536e-05, No Iterations 5
smoothSolver:  Solving for k, Initial residual = 0.0129015, Final residual = 0.0010142, No Iterations 6
ExecutionTime = 0.86 s  ClockTime = 1 s

scalarTransport execute: age
smoothSolver:  Solving for age, Initial residual = 0.0162391, Final residual = 0.00141129, No Iterations 12

Time = 64

smoothSolver:  Solving for Ux, Initial residual = 0.0110063, Final residual = 0.000746824, No Iterations 6
smoothSolver:  Solving for Uy, Initial residual = 0.00663775, Final residual = 0.000460631, No Iterations 6
GAMG:  Solving for p, Initial residual = 0.0108459, Final residual = 0.000895899, No Iterations 2
time step continuity errors : sum local = 0.00223453, global = 0.0002689, cumulative = 0.0160778
smoothSolver:  Solving for omega, Initial residual = 0.00120013, Final residual = 9.17954e-05, No Iterations 5
smoothSolver:  Solving for k, Initial residual = 0.012539, Final residual = 0.000984955, No Iterations 6
ExecutionTime = 0.87 s  ClockTime = 1 s

scalarTransport execute: age
smoothSolver:  Solving for age, Initial residual = 0.0168314, Final residual = 0.0014318, No Iterations 12

Time = 65

smoothSolver:  Solving for Ux, Initial residual = 0.0108853, Final residual = 0.000743936, No Iterations 6
smoothSolver:  Solving for Uy, Initial residual = 0.00667621, Final residual = 0.00046797, No Iterations 6
GAMG:  Solving for p, Initial residual = 0.0103444, Final residual = 0.000856271, No Iterations 2
time step continuity errors : sum local = 0.00213154, global = 0.000260414, cumulative = 0.0163383
smoothSolver:  Solving for omega, Initial residual = 0.00116394, Final residual = 8.86166e-05, No Iterations 5
smoothSolver:  Solving for k, Initial residual = 0.0121887, Final residual = 0.000956773, No Iterations 6
ExecutionTime = 0.88 s  ClockTime = 1 s

scalarTransport execute: age
smoothSolver:  Solving for age, Initial residual = 0.0176302, Final residual = 0.00169788, No Iterations 11

Time = 66

smoothSolver:  Solving for Ux, Initial residual = 0.010786, Final residual = 0.00073998, No Iterations 6
smoothSolver:  Solving for Uy, Initial residual = 0.00669713, Final residual = 0.000473824, No Iterations 6
GAMG:  Solving for p, Initial residual = 0.0100326, Final residual = 0.000816737, No Iterations 2
time step continuity errors : sum local = 0.00202945, global = 0.000249654, cumulative = 0.0165879
smoothSolver:  Solving for omega, Initial residual = 0.00112646, Final residual = 8.55437e-05, No Iterations 5
smoothSolver:  Solving for k, Initial residual = 0.011849, Final residual = 0.000929594, No Iterations 6
ExecutionTime = 0.9 s  ClockTime = 1 s

scalarTransport execute: age
smoothSolver:  Solving for age, Initial residual = 0.018301, Final residual = 0.00172231, No Iterations 11

Time = 67

smoothSolver:  Solving for Ux, Initial residual = 0.0106879, Final residual = 0.000735455, No Iterations 6
smoothSolver:  Solving for Uy, Initial residual = 0.00670096, Final residual = 0.000478441, No Iterations 6
GAMG:  Solving for p, Initial residual = 0.00985455, Final residual = 0.000758391, No Iterations 2
time step continuity errors : sum local = 0.00188107, global = 0.000230667, cumulative = 0.0168186
smoothSolver:  Solving for omega, Initial residual = 0.00109039, Final residual = 8.26185e-05, No Iterations 5
smoothSolver:  Solving for k, Initial residual = 0.0115197, Final residual = 0.000903408, No Iterations 6
ExecutionTime = 0.91 s  ClockTime = 1 s

scalarTransport execute: age
smoothSolver:  Solving for age, Initial residual = 0.0188192, Final residual = 0.00168781, No Iterations 11

Time = 68

smoothSolver:  Solving for Ux, Initial residual = 0.0106391, Final residual = 0.000731787, No Iterations 6
smoothSolver:  Solving for Uy, Initial residual = 0.00669735, Final residual = 0.000482124, No Iterations 6
GAMG:  Solving for p, Initial residual = 0.00969327, Final residual = 0.000711592, No Iterations 2
time step continuity errors : sum local = 0.00176059, global = 0.000209777, cumulative = 0.0170284
smoothSolver:  Solving for omega, Initial residual = 0.00105522, Final residual = 7.98381e-05, No Iterations 5
smoothSolver:  Solving for k, Initial residual = 0.0112012, Final residual = 0.000878127, No Iterations 6
ExecutionTime = 0.92 s  ClockTime = 1 s

scalarTransport execute: age
smoothSolver:  Solving for age, Initial residual = 0.0193226, Final residual = 0.0017164, No Iterations 11

Time = 69

smoothSolver:  Solving for Ux, Initial residual = 0.0105916, Final residual = 0.000728089, No Iterations 6
smoothSolver:  Solving for Uy, Initial residual = 0.00668685, Final residual = 0.000485121, No Iterations 6
GAMG:  Solving for p, Initial residual = 0.00976379, Final residual = 0.000670754, No Iterations 2
time step continuity errors : sum local = 0.00165599, global = 0.000187817, cumulative = 0.0172162
smoothSolver:  Solving for omega, Initial residual = 0.00102532, Final residual = 7.72201e-05, No Iterations 5
smoothSolver:  Solving for k, Initial residual = 0.0108912, Final residual = 0.000853691, No Iterations 6
ExecutionTime = 0.93 s  ClockTime = 1 s

scalarTransport execute: age
smoothSolver:  Solving for age, Initial residual = 0.0194237, Final residual = 0.0018214, No Iterations 11

Time = 70

smoothSolver:  Solving for Ux, Initial residual = 0.0105592, Final residual = 0.000725647, No Iterations 6
smoothSolver:  Solving for Uy, Initial residual = 0.0066806, Final residual = 0.000487552, No Iterations 6
GAMG:  Solving for p, Initial residual = 0.00983955, Final residual = 0.000638263, No Iterations 2
time step continuity errors : sum local = 0.00157238, global = 0.00016588, cumulative = 0.0173821
smoothSolver:  Solving for omega, Initial residual = 0.00099505, Final residual = 7.47426e-05, No Iterations 5
smoothSolver:  Solving for k, Initial residual = 0.0105912, Final residual = 0.000830111, No Iterations 6
ExecutionTime = 0.95 s  ClockTime = 1 s

scalarTransport execute: age
smoothSolver:  Solving for age, Initial residual = 0.0189887, Final residual = 0.00180465, No Iterations 11

Time = 71

smoothSolver:  Solving for Ux, Initial residual = 0.010526, Final residual = 0.000724155, No Iterations 6
smoothSolver:  Solving for Uy, Initial residual = 0.00667356, Final residual = 0.000489537, No Iterations 6
GAMG:  Solving for p, Initial residual = 0.0099139, Final residual = 0.000608359, No Iterations 2
time step continuity errors : sum local = 0.00149488, global = 0.000144698, cumulative = 0.0175268
smoothSolver:  Solving for omega, Initial residual = 0.000966397, Final residual = 7.24062e-05, No Iterations 5
smoothSolver:  Solving for k, Initial residual = 0.010302, Final residual = 0.000807353, No Iterations 6
ExecutionTime = 0.96 s  ClockTime = 1 s

scalarTransport execute: age
smoothSolver:  Solving for age, Initial residual = 0.0179237, Final residual = 0.00171381, No Iterations 11

Time = 72

smoothSolver:  Solving for Ux, Initial residual = 0.010485, Final residual = 0.000722309, No Iterations 6
smoothSolver:  Solving for Uy, Initial residual = 0.00667099, Final residual = 0.000491093, No Iterations 6
GAMG:  Solving for p, Initial residual = 0.0100059, Final residual = 0.000592509, No Iterations 2
time step continuity errors : sum local = 0.00145203, global = 0.00012945, cumulative = 0.0176562
smoothSolver:  Solving for omega, Initial residual = 0.000935365, Final residual = 7.01683e-05, No Iterations 5
smoothSolver:  Solving for k, Initial residual = 0.0100254, Final residual = 0.000785373, No Iterations 6
ExecutionTime = 0.97 s  ClockTime = 1 s

scalarTransport execute: age
smoothSolver:  Solving for age, Initial residual = 0.0166124, Final residual = 0.00163993, No Iterations 11

Time = 73

smoothSolver:  Solving for Ux, Initial residual = 0.0104229, Final residual = 0.000718363, No Iterations 6
smoothSolver:  Solving for Uy, Initial residual = 0.00666667, Final residual = 0.000492002, No Iterations 6
GAMG:  Solving for p, Initial residual = 0.0100345, Final residual = 0.000576138, No Iterations 2
time step continuity errors : sum local = 0.00140543, global = 0.000115913, cumulative = 0.0177721
smoothSolver:  Solving for omega, Initial residual = 0.000910831, Final residual = 6.80533e-05, No Iterations 5
smoothSolver:  Solving for k, Initial residual = 0.00975995, Final residual = 0.000764135, No Iterations 6
ExecutionTime = 0.99 s  ClockTime = 1 s

scalarTransport execute: age
smoothSolver:  Solving for age, Initial residual = 0.0153214, Final residual = 0.00137604, No Iterations 12

Time = 74

smoothSolver:  Solving for Ux, Initial residual = 0.0103418, Final residual = 0.00071344, No Iterations 6
smoothSolver:  Solving for Uy, Initial residual = 0.00665816, Final residual = 0.000492345, No Iterations 6
GAMG:  Solving for p, Initial residual = 0.00990865, Final residual = 0.000563284, No Iterations 2
time step continuity errors : sum local = 0.00136548, global = 0.00010559, cumulative = 0.0178777
smoothSolver:  Solving for omega, Initial residual = 0.000884788, Final residual = 6.60429e-05, No Iterations 5
smoothSolver:  Solving for k, Initial residual = 0.00950459, Final residual = 0.000743576, No Iterations 6
ExecutionTime = 1 s  ClockTime = 1 s

scalarTransport execute: age
smoothSolver:  Solving for age, Initial residual = 0.0142848, Final residual = 0.00131078, No Iterations 12

Time = 75

smoothSolver:  Solving for Ux, Initial residual = 0.0102438, Final residual = 0.000707527, No Iterations 6
smoothSolver:  Solving for Uy, Initial residual = 0.00665385, Final residual = 0.000492291, No Iterations 6
GAMG:  Solving for p, Initial residual = 0.00971041, Final residual = 0.000556074, No Iterations 2
time step continuity errors : sum local = 0.00133844, global = 9.71775e-05, cumulative = 0.0179749
smoothSolver:  Solving for omega, Initial residual = 0.000860058, Final residual = 6.40583e-05, No Iterations 5
smoothSolver:  Solving for k, Initial residual = 0.0092568, Final residual = 0.000723653, No Iterations 6
ExecutionTime = 1.01 s  ClockTime = 1 s

scalarTransport execute: age
smoothSolver:  Solving for age, Initial residual = 0.0133199, Final residual = 0.00127663, No Iterations 12

Time = 76

smoothSolver:  Solving for Ux, Initial residual = 0.0101378, Final residual = 0.000700379, No Iterations 6
smoothSolver:  Solving for Uy, Initial residual = 0.0066527, Final residual = 0.000491513, No Iterations 6
GAMG:  Solving for p, Initial residual = 0.00947148, Final residual = 0.000551557, No Iterations 2
time step continuity errors : sum local = 0.00131666, global = 9.1042e-05, cumulative = 0.0180659
smoothSolver:  Solving for omega, Initial residual = 0.000835932, Final residual = 6.20539e-05, No Iterations 5
smoothSolver:  Solving for k, Initial residual = 0.00901591, Final residual = 0.000704326, No Iterations 6
ExecutionTime = 1.03 s  ClockTime = 1 s

scalarTransport execute: age
smoothSolver:  Solving for age, Initial residual = 0.0128499, Final residual = 0.00126836, No Iterations 12

Time = 77

smoothSolver:  Solving for Ux, Initial residual = 0.0100202, Final residual = 0.000691898, No Iterations 6
smoothSolver:  Solving for Uy, Initial residual = 0.00663318, Final residual = 0.000489344, No Iterations 6
GAMG:  Solving for p, Initial residual = 0.00920502, Final residual = 0.000547145, No Iterations 2
time step continuity errors : sum local = 0.00129615, global = 8.71647e-05, cumulative = 0.0181531
smoothSolver:  Solving for omega, Initial residual = 0.000813309, Final residual = 6.00866e-05, No Iterations 5
smoothSolver:  Solving for k, Initial residual = 0.00878055, Final residual = 0.000685569, No Iterations 6
ExecutionTime = 1.04 s  ClockTime = 1 s

scalarTransport execute: age
smoothSolver:  Solving for age, Initial residual = 0.0124677, Final residual = 0.00111893, No Iterations 13

Time = 78

smoothSolver:  Solving for Ux, Initial residual = 0.00988426, Final residual = 0.000682146, No Iterations 6
smoothSolver:  Solving for Uy, Initial residual = 0.00659701, Final residual = 0.000485696, No Iterations 6
GAMG:  Solving for p, Initial residual = 0.00888443, Final residual = 0.000541622, No Iterations 2
time step continuity errors : sum local = 0.00127451, global = 8.57097e-05, cumulative = 0.0182388
smoothSolver:  Solving for omega, Initial residual = 0.000795487, Final residual = 5.81351e-05, No Iterations 5
smoothSolver:  Solving for k, Initial residual = 0.00855094, Final residual = 0.000667349, No Iterations 6
ExecutionTime = 1.05 s  ClockTime = 1 s

scalarTransport execute: age
smoothSolver:  Solving for age, Initial residual = 0.0121814, Final residual = 0.00115123, No Iterations 13

Time = 79

smoothSolver:  Solving for Ux, Initial residual = 0.00973401, Final residual = 0.000671131, No Iterations 6
smoothSolver:  Solving for Uy, Initial residual = 0.00654387, Final residual = 0.000480467, No Iterations 6
GAMG:  Solving for p, Initial residual = 0.00871299, Final residual = 0.000534005, No Iterations 2
time step continuity errors : sum local = 0.00124912, global = 8.50751e-05, cumulative = 0.0183239
smoothSolver:  Solving for omega, Initial residual = 0.000777484, Final residual = 5.62946e-05, No Iterations 5
smoothSolver:  Solving for k, Initial residual = 0.00832733, Final residual = 0.000649629, No Iterations 6
ExecutionTime = 1.06 s  ClockTime = 1 s

scalarTransport execute: age
smoothSolver:  Solving for age, Initial residual = 0.0118895, Final residual = 0.00117798, No Iterations 13

Time = 80

smoothSolver:  Solving for Ux, Initial residual = 0.00957663, Final residual = 0.000659024, No Iterations 6
smoothSolver:  Solving for Uy, Initial residual = 0.00646857, Final residual = 0.000473777, No Iterations 6
GAMG:  Solving for p, Initial residual = 0.00865392, Final residual = 0.000534453, No Iterations 2
time step continuity errors : sum local = 0.00124304, global = 8.46284e-05, cumulative = 0.0184085
smoothSolver:  Solving for omega, Initial residual = 0.000759708, Final residual = 5.45776e-05, No Iterations 5
smoothSolver:  Solving for k, Initial residual = 0.00810895, Final residual = 0.000632408, No Iterations 6
ExecutionTime = 1.08 s  ClockTime = 1 s

scalarTransport execute: age
smoothSolver:  Solving for age, Initial residual = 0.0115896, Final residual = 0.0010538, No Iterations 14

Time = 81

smoothSolver:  Solving for Ux, Initial residual = 0.00940999, Final residual = 0.00064609, No Iterations 6
smoothSolver:  Solving for Uy, Initial residual = 0.00637375, Final residual = 0.000465816, No Iterations 6
GAMG:  Solving for p, Initial residual = 0.00861248, Final residual = 0.000540319, No Iterations 2
time step continuity errors : sum local = 0.0012488, global = 8.35045e-05, cumulative = 0.018492
smoothSolver:  Solving for omega, Initial residual = 0.000744101, Final residual = 5.30454e-05, No Iterations 5
smoothSolver:  Solving for k, Initial residual = 0.00789586, Final residual = 0.00061562, No Iterations 6
ExecutionTime = 1.09 s  ClockTime = 1 s

scalarTransport execute: age
smoothSolver:  Solving for age, Initial residual = 0.011407, Final residual = 0.00107596, No Iterations 14

Time = 82

smoothSolver:  Solving for Ux, Initial residual = 0.00923421, Final residual = 0.000632284, No Iterations 6
smoothSolver:  Solving for Uy, Initial residual = 0.00626415, Final residual = 0.000456763, No Iterations 6
GAMG:  Solving for p, Initial residual = 0.00858255, Final residual = 0.000544496, No Iterations 2
time step continuity errors : sum local = 0.0012516, global = 8.03853e-05, cumulative = 0.0185724
smoothSolver:  Solving for omega, Initial residual = 0.000728964, Final residual = 5.16333e-05, No Iterations 5
smoothSolver:  Solving for k, Initial residual = 0.00768769, Final residual = 0.000599285, No Iterations 6
ExecutionTime = 1.1 s  ClockTime = 1 s

scalarTransport execute: age
smoothSolver:  Solving for age, Initial residual = 0.011176, Final residual = 0.00109003, No Iterations 14

Time = 83

smoothSolver:  Solving for Ux, Initial residual = 0.00904912, Final residual = 0.000617907, No Iterations 6
smoothSolver:  Solving for Uy, Initial residual = 0.00614501, Final residual = 0.000446825, No Iterations 6
GAMG:  Solving for p, Initial residual = 0.00854293, Final residual = 0.00054658, No Iterations 2
time step continuity errors : sum local = 0.00125045, global = 7.64028e-05, cumulative = 0.0186488
smoothSolver:  Solving for omega, Initial residual = 0.000711358, Final residual = 5.01803e-05, No Iterations 5
smoothSolver:  Solving for k, Initial residual = 0.00748322, Final residual = 0.000583389, No Iterations 6
ExecutionTime = 1.12 s  ClockTime = 1 s

scalarTransport execute: age
smoothSolver:  Solving for age, Initial residual = 0.011029, Final residual = 0.00109962, No Iterations 14

Time = 84

smoothSolver:  Solving for Ux, Initial residual = 0.00885107, Final residual = 0.000603143, No Iterations 6
smoothSolver:  Solving for Uy, Initial residual = 0.00601749, Final residual = 0.000436255, No Iterations 6
GAMG:  Solving for p, Initial residual = 0.00849406, Final residual = 0.000539279, No Iterations 2
time step continuity errors : sum local = 0.00122837, global = 6.67422e-05, cumulative = 0.0187155
smoothSolver:  Solving for omega, Initial residual = 0.000695055, Final residual = 4.87815e-05, No Iterations 5
smoothSolver:  Solving for k, Initial residual = 0.00728329, Final residual = 0.000567902, No Iterations 6
ExecutionTime = 1.13 s  ClockTime = 1 s

scalarTransport execute: age
smoothSolver:  Solving for age, Initial residual = 0.0109836, Final residual = 0.000969098, No Iterations 15

Time = 85

smoothSolver:  Solving for Ux, Initial residual = 0.00864927, Final residual = 0.00058867, No Iterations 6
smoothSolver:  Solving for Uy, Initial residual = 0.00588056, Final residual = 0.0004248, No Iterations 6
GAMG:  Solving for p, Initial residual = 0.00840008, Final residual = 0.000539837, No Iterations 2
time step continuity errors : sum local = 0.00122428, global = 6.17434e-05, cumulative = 0.0187773
smoothSolver:  Solving for omega, Initial residual = 0.000675849, Final residual = 4.74e-05, No Iterations 5
smoothSolver:  Solving for k, Initial residual = 0.0070883, Final residual = 0.00055282, No Iterations 6
ExecutionTime = 1.14 s  ClockTime = 1 s

scalarTransport execute: age
smoothSolver:  Solving for age, Initial residual = 0.010943, Final residual = 0.000961848, No Iterations 15

Time = 86

smoothSolver:  Solving for Ux, Initial residual = 0.00842593, Final residual = 0.000572795, No Iterations 6
smoothSolver:  Solving for Uy, Initial residual = 0.00573239, Final residual = 0.000412459, No Iterations 6
GAMG:  Solving for p, Initial residual = 0.00823412, Final residual = 0.000531802, No Iterations 2
time step continuity errors : sum local = 0.00120082, global = 5.47089e-05, cumulative = 0.018832
smoothSolver:  Solving for omega, Initial residual = 0.000659033, Final residual = 4.59745e-05, No Iterations 5
smoothSolver:  Solving for k, Initial residual = 0.00689817, Final residual = 0.000538096, No Iterations 6
ExecutionTime = 1.16 s  ClockTime = 1 s

scalarTransport execute: age
smoothSolver:  Solving for age, Initial residual = 0.0108209, Final residual = 0.000946492, No Iterations 15

Time = 87

smoothSolver:  Solving for Ux, Initial residual = 0.00819981, Final residual = 0.000556766, No Iterations 6
smoothSolver:  Solving for Uy, Initial residual = 0.00556811, Final residual = 0.000399198, No Iterations 6
GAMG:  Solving for p, Initial residual = 0.00800381, Final residual = 0.0005227, No Iterations 2
time step continuity errors : sum local = 0.00117481, global = 4.71e-05, cumulative = 0.0188791
smoothSolver:  Solving for omega, Initial residual = 0.000639912, Final residual = 4.45573e-05, No Iterations 5
smoothSolver:  Solving for k, Initial residual = 0.00671286, Final residual = 0.000523683, No Iterations 6
ExecutionTime = 1.17 s  ClockTime = 1 s

scalarTransport execute: age
smoothSolver:  Solving for age, Initial residual = 0.0106008, Final residual = 0.00105263, No Iterations 14

Time = 88

smoothSolver:  Solving for Ux, Initial residual = 0.00796866, Final residual = 0.000540485, No Iterations 6
smoothSolver:  Solving for Uy, Initial residual = 0.00539573, Final residual = 0.000385155, No Iterations 6
GAMG:  Solving for p, Initial residual = 0.00775202, Final residual = 0.000516248, No Iterations 2
time step continuity errors : sum local = 0.00115536, global = 4.0244e-05, cumulative = 0.0189193
smoothSolver:  Solving for omega, Initial residual = 0.000618029, Final residual = 4.30326e-05, No Iterations 5
smoothSolver:  Solving for k, Initial residual = 0.00653188, Final residual = 0.000509638, No Iterations 6
ExecutionTime = 1.18 s  ClockTime = 1 s

scalarTransport execute: age
smoothSolver:  Solving for age, Initial residual = 0.0102554, Final residual = 0.000989954, No Iterations 14

Time = 89

smoothSolver:  Solving for Ux, Initial residual = 0.0077348, Final residual = 0.000524005, No Iterations 6
smoothSolver:  Solving for Uy, Initial residual = 0.00521397, Final residual = 0.000370372, No Iterations 6
GAMG:  Solving for p, Initial residual = 0.00749341, Final residual = 0.000508931, No Iterations 2
time step continuity errors : sum local = 0.00113455, global = 3.32401e-05, cumulative = 0.0189526
smoothSolver:  Solving for omega, Initial residual = 0.000597299, Final residual = 4.15842e-05, No Iterations 5
smoothSolver:  Solving for k, Initial residual = 0.00635433, Final residual = 0.000495867, No Iterations 6
ExecutionTime = 1.2 s  ClockTime = 1 s

scalarTransport execute: age
smoothSolver:  Solving for age, Initial residual = 0.00980144, Final residual = 0.000896178, No Iterations 14

Time = 90

smoothSolver:  Solving for Ux, Initial residual = 0.00749635, Final residual = 0.000507404, No Iterations 6
smoothSolver:  Solving for Uy, Initial residual = 0.00502284, Final residual = 0.000354913, No Iterations 6
GAMG:  Solving for p, Initial residual = 0.00727615, Final residual = 0.000502248, No Iterations 2
time step continuity errors : sum local = 0.00111537, global = 2.65679e-05, cumulative = 0.0189791
smoothSolver:  Solving for omega, Initial residual = 0.000577322, Final residual = 4.0202e-05, No Iterations 5
smoothSolver:  Solving for k, Initial residual = 0.00618071, Final residual = 0.000482357, No Iterations 6
ExecutionTime = 1.21 s  ClockTime = 1 s

scalarTransport execute: age
smoothSolver:  Solving for age, Initial residual = 0.00929571, Final residual = 0.000810092, No Iterations 14

Time = 91

smoothSolver:  Solving for Ux, Initial residual = 0.00725376, Final residual = 0.000490468, No Iterations 6
smoothSolver:  Solving for Uy, Initial residual = 0.0048232, Final residual = 0.000339029, No Iterations 6
GAMG:  Solving for p, Initial residual = 0.00709351, Final residual = 0.000493144, No Iterations 2
time step continuity errors : sum local = 0.00109123, global = 1.95674e-05, cumulative = 0.0189987
smoothSolver:  Solving for omega, Initial residual = 0.000559809, Final residual = 3.88965e-05, No Iterations 5
smoothSolver:  Solving for k, Initial residual = 0.00601007, Final residual = 0.000469062, No Iterations 6
ExecutionTime = 1.22 s  ClockTime = 1 s

scalarTransport execute: age
smoothSolver:  Solving for age, Initial residual = 0.00875331, Final residual = 0.000834907, No Iterations 13

Time = 92

smoothSolver:  Solving for Ux, Initial residual = 0.00700487, Final residual = 0.000473273, No Iterations 6
smoothSolver:  Solving for Uy, Initial residual = 0.00462535, Final residual = 0.000323036, No Iterations 6
GAMG:  Solving for p, Initial residual = 0.00694875, Final residual = 0.000482925, No Iterations 2
time step continuity errors : sum local = 0.0010651, global = 1.36187e-05, cumulative = 0.0190123
smoothSolver:  Solving for omega, Initial residual = 0.000534439, Final residual = 3.74205e-05, No Iterations 5
smoothSolver:  Solving for k, Initial residual = 0.00584387, Final residual = 0.000455998, No Iterations 6
ExecutionTime = 1.24 s  ClockTime = 1 s

scalarTransport execute: age
smoothSolver:  Solving for age, Initial residual = 0.00826162, Final residual = 0.000740996, No Iterations 13

Time = 93

smoothSolver:  Solving for Ux, Initial residual = 0.00675429, Final residual = 0.000455849, No Iterations 6
smoothSolver:  Solving for Uy, Initial residual = 0.00443004, Final residual = 0.000307162, No Iterations 6
GAMG:  Solving for p, Initial residual = 0.00680232, Final residual = 0.000471436, No Iterations 2
time step continuity errors : sum local = 0.00103592, global = 8.74581e-06, cumulative = 0.0190211
smoothSolver:  Solving for omega, Initial residual = 0.000518266, Final residual = 3.62662e-05, No Iterations 5
smoothSolver:  Solving for k, Initial residual = 0.00567973, Final residual = 0.000442947, No Iterations 6
ExecutionTime = 1.25 s  ClockTime = 1 s

scalarTransport execute: age
smoothSolver:  Solving for age, Initial residual = 0.00773033, Final residual = 0.00075921, No Iterations 12

Time = 94

smoothSolver:  Solving for Ux, Initial residual = 0.00650653, Final residual = 0.000438381, No Iterations 6
smoothSolver:  Solving for Uy, Initial residual = 0.00423135, Final residual = 0.00029157, No Iterations 6
GAMG:  Solving for p, Initial residual = 0.00663251, Final residual = 0.00045851, No Iterations 2
time step continuity errors : sum local = 0.00100451, global = 8.76481e-06, cumulative = 0.0190298
smoothSolver:  Solving for omega, Initial residual = 0.000504304, Final residual = 3.51679e-05, No Iterations 5
smoothSolver:  Solving for k, Initial residual = 0.00551659, Final residual = 0.000429882, No Iterations 6
ExecutionTime = 1.26 s  ClockTime = 1 s

scalarTransport execute: age
smoothSolver:  Solving for age, Initial residual = 0.00732814, Final residual = 0.000670264, No Iterations 12

Time = 95

smoothSolver:  Solving for Ux, Initial residual = 0.00625665, Final residual = 0.000420253, No Iterations 6
smoothSolver:  Solving for Uy, Initial residual = 0.00404252, Final residual = 0.000276462, No Iterations 6
GAMG:  Solving for p, Initial residual = 0.0064392, Final residual = 0.000441307, No Iterations 2
time step continuity errors : sum local = 0.000964792, global = 1.03808e-05, cumulative = 0.0190402
smoothSolver:  Solving for omega, Initial residual = 0.000488986, Final residual = 3.40061e-05, No Iterations 5
smoothSolver:  Solving for k, Initial residual = 0.00535432, Final residual = 0.000416811, No Iterations 6
ExecutionTime = 1.28 s  ClockTime = 1 s

scalarTransport execute: age
smoothSolver:  Solving for age, Initial residual = 0.00690144, Final residual = 0.000593799, No Iterations 12

Time = 96

[...]

Time = 620

smoothSolver:  Solving for Ux, Initial residual = 5.31576e-07, Final residual = 4.62035e-08, No Iterations 5
smoothSolver:  Solving for Uy, Initial residual = 3.25402e-07, Final residual = 2.79806e-08, No Iterations 5
GAMG:  Solving for p, Initial residual = 1.26047e-06, Final residual = 7.29447e-08, No Iterations 2
time step continuity errors : sum local = 1.68333e-07, global = -1.31974e-09, cumulative = 0.020143
smoothSolver:  Solving for omega, Initial residual = 4.0584e-08, Final residual = 5.87293e-09, No Iterations 3
smoothSolver:  Solving for k, Initial residual = 8.71356e-08, Final residual = 7.50738e-09, No Iterations 5
ExecutionTime = 7.9 s  ClockTime = 8 s

scalarTransport execute: age
smoothSolver:  Solving for age, Initial residual = 0.000254303, Final residual = 2.33915e-05, No Iterations 15

Time = 621

smoothSolver:  Solving for Ux, Initial residual = 5.27642e-07, Final residual = 4.58856e-08, No Iterations 5
smoothSolver:  Solving for Uy, Initial residual = 3.22442e-07, Final residual = 2.77512e-08, No Iterations 5
GAMG:  Solving for p, Initial residual = 1.24956e-06, Final residual = 7.18913e-08, No Iterations 2
time step continuity errors : sum local = 1.65902e-07, global = -1.17792e-09, cumulative = 0.020143
smoothSolver:  Solving for omega, Initial residual = 4.03369e-08, Final residual = 5.79521e-09, No Iterations 3
smoothSolver:  Solving for k, Initial residual = 8.56328e-08, Final residual = 7.36581e-09, No Iterations 5
ExecutionTime = 7.91 s  ClockTime = 8 s

scalarTransport execute: age
smoothSolver:  Solving for age, Initial residual = 0.000253861, Final residual = 2.33512e-05, No Iterations 15

Time = 622

smoothSolver:  Solving for Ux, Initial residual = 5.22869e-07, Final residual = 4.5441e-08, No Iterations 5
smoothSolver:  Solving for Uy, Initial residual = 3.19297e-07, Final residual = 2.74801e-08, No Iterations 5
GAMG:  Solving for p, Initial residual = 1.23704e-06, Final residual = 7.09915e-08, No Iterations 2
time step continuity errors : sum local = 1.63826e-07, global = -9.00913e-10, cumulative = 0.020143
smoothSolver:  Solving for omega, Initial residual = 3.96036e-08, Final residual = 9.95561e-09, No Iterations 2
smoothSolver:  Solving for k, Initial residual = 8.41105e-08, Final residual = 7.21525e-09, No Iterations 5
ExecutionTime = 7.93 s  ClockTime = 8 s

scalarTransport execute: age
smoothSolver:  Solving for age, Initial residual = 0.00025342, Final residual = 2.33111e-05, No Iterations 15

Time = 623

smoothSolver:  Solving for Ux, Initial residual = 5.1781e-07, Final residual = 4.49784e-08, No Iterations 5
smoothSolver:  Solving for Uy, Initial residual = 3.16599e-07, Final residual = 2.72588e-08, No Iterations 5
GAMG:  Solving for p, Initial residual = 1.22733e-06, Final residual = 7.04214e-08, No Iterations 2
time step continuity errors : sum local = 1.6251e-07, global = -6.6145e-10, cumulative = 0.020143
smoothSolver:  Solving for omega, Initial residual = 4.03844e-08, Final residual = 5.86563e-09, No Iterations 3
smoothSolver:  Solving for k, Initial residual = 8.27271e-08, Final residual = 7.08223e-09, No Iterations 5
ExecutionTime = 7.94 s  ClockTime = 8 s

scalarTransport execute: age
smoothSolver:  Solving for age, Initial residual = 0.000252982, Final residual = 2.32713e-05, No Iterations 15

Time = 624

smoothSolver:  Solving for Ux, Initial residual = 5.13083e-07, Final residual = 4.45601e-08, No Iterations 5
smoothSolver:  Solving for Uy, Initial residual = 3.13855e-07, Final residual = 2.70369e-08, No Iterations 5
GAMG:  Solving for p, Initial residual = 1.21713e-06, Final residual = 7.02567e-08, No Iterations 2
time step continuity errors : sum local = 1.6213e-07, global = -1.4856e-09, cumulative = 0.020143
smoothSolver:  Solving for omega, Initial residual = 3.9352e-08, Final residual = 5.76169e-09, No Iterations 3
smoothSolver:  Solving for k, Initial residual = 8.1383e-08, Final residual = 6.9537e-09, No Iterations 5
ExecutionTime = 7.95 s  ClockTime = 8 s

scalarTransport execute: age
smoothSolver:  Solving for age, Initial residual = 0.000252544, Final residual = 2.32316e-05, No Iterations 15

Time = 625

smoothSolver:  Solving for Ux, Initial residual = 5.08948e-07, Final residual = 4.42301e-08, No Iterations 5
smoothSolver:  Solving for Uy, Initial residual = 3.10879e-07, Final residual = 2.68058e-08, No Iterations 5
GAMG:  Solving for p, Initial residual = 1.20519e-06, Final residual = 6.91639e-08, No Iterations 2
time step continuity errors : sum local = 1.59608e-07, global = -1.38572e-09, cumulative = 0.020143
smoothSolver:  Solving for omega, Initial residual = 3.91629e-08, Final residual = 9.86228e-09, No Iterations 2
smoothSolver:  Solving for k, Initial residual = 7.99563e-08, Final residual = 6.81429e-09, No Iterations 5
ExecutionTime = 7.96 s  ClockTime = 8 s

scalarTransport execute: age
smoothSolver:  Solving for age, Initial residual = 0.00025211, Final residual = 2.31921e-05, No Iterations 15

Time = 626

smoothSolver:  Solving for Ux, Initial residual = 5.03685e-07, Final residual = 4.37448e-08, No Iterations 5
smoothSolver:  Solving for Uy, Initial residual = 3.07703e-07, Final residual = 2.65292e-08, No Iterations 5
GAMG:  Solving for p, Initial residual = 1.19355e-06, Final residual = 6.82586e-08, No Iterations 2
time step continuity errors : sum local = 1.57519e-07, global = -1.14532e-09, cumulative = 0.020143
smoothSolver:  Solving for omega, Initial residual = 3.96068e-08, Final residual = 5.80067e-09, No Iterations 3
smoothSolver:  Solving for k, Initial residual = 7.86171e-08, Final residual = 6.69111e-09, No Iterations 5
ExecutionTime = 7.98 s  ClockTime = 8 s

scalarTransport execute: age
smoothSolver:  Solving for age, Initial residual = 0.000251677, Final residual = 2.31528e-05, No Iterations 15

Time = 627

smoothSolver:  Solving for Ux, Initial residual = 4.98905e-07, Final residual = 4.33091e-08, No Iterations 5
smoothSolver:  Solving for Uy, Initial residual = 3.04831e-07, Final residual = 2.62965e-08, No Iterations 5
GAMG:  Solving for p, Initial residual = 1.18268e-06, Final residual = 6.76458e-08, No Iterations 2
time step continuity errors : sum local = 1.56105e-07, global = -9.30937e-10, cumulative = 0.020143
smoothSolver:  Solving for omega, Initial residual = 3.88219e-08, Final residual = 9.87811e-09, No Iterations 2
smoothSolver:  Solving for k, Initial residual = 7.72978e-08, Final residual = 6.5609e-09, No Iterations 5
ExecutionTime = 7.99 s  ClockTime = 8 s

scalarTransport execute: age
smoothSolver:  Solving for age, Initial residual = 0.000251245, Final residual = 2.31135e-05, No Iterations 15

Time = 628

smoothSolver:  Solving for Ux, Initial residual = 4.93704e-07, Final residual = 4.28516e-08, No Iterations 5
smoothSolver:  Solving for Uy, Initial residual = 3.02094e-07, Final residual = 2.60708e-08, No Iterations 5
GAMG:  Solving for p, Initial residual = 1.1725e-06, Final residual = 6.71973e-08, No Iterations 2
time step continuity errors : sum local = 1.55069e-07, global = -7.31041e-10, cumulative = 0.020143
smoothSolver:  Solving for omega, Initial residual = 3.93087e-08, Final residual = 5.79351e-09, No Iterations 3
smoothSolver:  Solving for k, Initial residual = 7.60421e-08, Final residual = 6.44443e-09, No Iterations 5
ExecutionTime = 8 s  ClockTime = 8 s

scalarTransport execute: age
smoothSolver:  Solving for age, Initial residual = 0.000250814, Final residual = 2.30744e-05, No Iterations 15

Time = 629

smoothSolver:  Solving for Ux, Initial residual = 4.89015e-07, Final residual = 4.24386e-08, No Iterations 5
smoothSolver:  Solving for Uy, Initial residual = 2.99146e-07, Final residual = 2.58297e-08, No Iterations 5
GAMG:  Solving for p, Initial residual = 1.16162e-06, Final residual = 6.69704e-08, No Iterations 2
time step continuity errors : sum local = 1.54546e-07, global = -1.58336e-09, cumulative = 0.020143
smoothSolver:  Solving for omega, Initial residual = 3.8219e-08, Final residual = 9.8217e-09, No Iterations 2
smoothSolver:  Solving for k, Initial residual = 7.48187e-08, Final residual = 6.32257e-09, No Iterations 5
ExecutionTime = 8.01 s  ClockTime = 8 s

scalarTransport execute: age
smoothSolver:  Solving for age, Initial residual = 0.000250383, Final residual = 2.30352e-05, No Iterations 15

Time = 630

smoothSolver:  Solving for Ux, Initial residual = 4.84457e-07, Final residual = 4.20741e-08, No Iterations 5
smoothSolver:  Solving for Uy, Initial residual = 2.95988e-07, Final residual = 2.55797e-08, No Iterations 5
GAMG:  Solving for p, Initial residual = 1.14932e-06, Final residual = 6.57899e-08, No Iterations 2
time step continuity errors : sum local = 1.51822e-07, global = -1.51965e-09, cumulative = 0.020143
smoothSolver:  Solving for omega, Initial residual = 3.90315e-08, Final residual = 9.98097e-09, No Iterations 2
smoothSolver:  Solving for k, Initial residual = 7.35679e-08, Final residual = 9.977e-09, No Iterations 4
ExecutionTime = 8.02 s  ClockTime = 8 s

scalarTransport execute: age
smoothSolver:  Solving for age, Initial residual = 0.000249954, Final residual = 2.29962e-05, No Iterations 15

Time = 631

smoothSolver:  Solving for Ux, Initial residual = 4.79132e-07, Final residual = 4.15825e-08, No Iterations 5
smoothSolver:  Solving for Uy, Initial residual = 2.92792e-07, Final residual = 2.52997e-08, No Iterations 5
GAMG:  Solving for p, Initial residual = 1.13688e-06, Final residual = 6.47896e-08, No Iterations 2
time step continuity errors : sum local = 1.49513e-07, global = -1.32967e-09, cumulative = 0.020143
smoothSolver:  Solving for omega, Initial residual = 3.89996e-08, Final residual = 5.81731e-09, No Iterations 3
smoothSolver:  Solving for k, Initial residual = 7.24848e-08, Final residual = 9.82438e-09, No Iterations 4
ExecutionTime = 8.04 s  ClockTime = 8 s

scalarTransport execute: age
smoothSolver:  Solving for age, Initial residual = 0.000249526, Final residual = 2.29572e-05, No Iterations 15

Time = 632

smoothSolver:  Solving for Ux, Initial residual = 4.74201e-07, Final residual = 4.11379e-08, No Iterations 5
smoothSolver:  Solving for Uy, Initial residual = 2.89839e-07, Final residual = 2.506e-08, No Iterations 5
GAMG:  Solving for p, Initial residual = 1.1246e-06, Final residual = 6.41135e-08, No Iterations 2
time step continuity errors : sum local = 1.47953e-07, global = -1.15481e-09, cumulative = 0.020143
smoothSolver:  Solving for omega, Initial residual = 3.79222e-08, Final residual = 9.80706e-09, No Iterations 2
smoothSolver:  Solving for k, Initial residual = 7.14248e-08, Final residual = 9.66327e-09, No Iterations 4
ExecutionTime = 8.05 s  ClockTime = 8 s

scalarTransport execute: age
smoothSolver:  Solving for age, Initial residual = 0.000249099, Final residual = 2.29183e-05, No Iterations 15

Time = 633

smoothSolver:  Solving for Ux, Initial residual = 4.68856e-07, Final residual = 4.0669e-08, No Iterations 5
smoothSolver:  Solving for Uy, Initial residual = 2.86996e-07, Final residual = 2.48263e-08, No Iterations 5
GAMG:  Solving for p, Initial residual = 1.11393e-06, Final residual = 6.36396e-08, No Iterations 2
time step continuity errors : sum local = 1.46859e-07, global = -9.9499e-10, cumulative = 0.020143
smoothSolver:  Solving for omega, Initial residual = 3.81966e-08, Final residual = 9.9225e-09, No Iterations 2
smoothSolver:  Solving for k, Initial residual = 7.04249e-08, Final residual = 9.51109e-09, No Iterations 4
ExecutionTime = 8.06 s  ClockTime = 8 s

scalarTransport execute: age
smoothSolver:  Solving for age, Initial residual = 0.000248672, Final residual = 2.28795e-05, No Iterations 15

Time = 634

smoothSolver:  Solving for Ux, Initial residual = 4.63657e-07, Final residual = 4.02111e-08, No Iterations 5
smoothSolver:  Solving for Uy, Initial residual = 2.83934e-07, Final residual = 2.45724e-08, No Iterations 5
GAMG:  Solving for p, Initial residual = 1.10332e-06, Final residual = 6.31269e-08, No Iterations 2
time step continuity errors : sum local = 1.45676e-07, global = -8.88209e-10, cumulative = 0.020143
smoothSolver:  Solving for omega, Initial residual = 3.83132e-08, Final residual = 9.99592e-09, No Iterations 2
smoothSolver:  Solving for k, Initial residual = 6.9444e-08, Final residual = 9.36337e-09, No Iterations 4
ExecutionTime = 8.07 s  ClockTime = 8 s

scalarTransport execute: age
smoothSolver:  Solving for age, Initial residual = 0.000248247, Final residual = 2.28406e-05, No Iterations 15

Time = 635

smoothSolver:  Solving for Ux, Initial residual = 4.5852e-07, Final residual = 3.97615e-08, No Iterations 5
smoothSolver:  Solving for Uy, Initial residual = 2.8067e-07, Final residual = 2.43049e-08, No Iterations 5
GAMG:  Solving for p, Initial residual = 1.09139e-06, Final residual = 6.28082e-08, No Iterations 2
time step continuity errors : sum local = 1.4494e-07, global = -1.7408e-09, cumulative = 0.020143
smoothSolver:  Solving for omega, Initial residual = 3.81474e-08, Final residual = 5.79605e-09, No Iterations 3
smoothSolver:  Solving for k, Initial residual = 6.84803e-08, Final residual = 9.22629e-09, No Iterations 4
ExecutionTime = 8.09 s  ClockTime = 8 s

scalarTransport execute: age
smoothSolver:  Solving for age, Initial residual = 0.000247823, Final residual = 2.28018e-05, No Iterations 15

Time = 636

smoothSolver:  Solving for Ux, Initial residual = 4.54219e-07, Final residual = 3.9421e-08, No Iterations 5
smoothSolver:  Solving for Uy, Initial residual = 2.77285e-07, Final residual = 2.40368e-08, No Iterations 5
GAMG:  Solving for p, Initial residual = 1.07803e-06, Final residual = 6.15194e-08, No Iterations 2
time step continuity errors : sum local = 1.41966e-07, global = -1.73003e-09, cumulative = 0.020143
smoothSolver:  Solving for omega, Initial residual = 3.72383e-08, Final residual = 9.70173e-09, No Iterations 2
smoothSolver:  Solving for k, Initial residual = 6.74409e-08, Final residual = 9.07795e-09, No Iterations 4
ExecutionTime = 8.1 s  ClockTime = 8 s

scalarTransport execute: age
smoothSolver:  Solving for age, Initial residual = 0.000247401, Final residual = 2.27631e-05, No Iterations 15

Time = 637

smoothSolver:  Solving for Ux, Initial residual = 4.48851e-07, Final residual = 3.89318e-08, No Iterations 5
smoothSolver:  Solving for Uy, Initial residual = 2.73948e-07, Final residual = 2.37427e-08, No Iterations 5
GAMG:  Solving for p, Initial residual = 1.06473e-06, Final residual = 6.04727e-08, No Iterations 2
time step continuity errors : sum local = 1.39551e-07, global = -1.58417e-09, cumulative = 0.020143
smoothSolver:  Solving for omega, Initial residual = 3.72245e-08, Final residual = 9.77089e-09, No Iterations 2
smoothSolver:  Solving for k, Initial residual = 6.64786e-08, Final residual = 8.93735e-09, No Iterations 4
ExecutionTime = 8.11 s  ClockTime = 8 s

scalarTransport execute: age
smoothSolver:  Solving for age, Initial residual = 0.00024698, Final residual = 2.27244e-05, No Iterations 15

Time = 638

smoothSolver:  Solving for Ux, Initial residual = 4.43552e-07, Final residual = 3.84572e-08, No Iterations 5
smoothSolver:  Solving for Uy, Initial residual = 2.70934e-07, Final residual = 2.34942e-08, No Iterations 5
GAMG:  Solving for p, Initial residual = 1.05376e-06, Final residual = 5.98117e-08, No Iterations 2
time step continuity errors : sum local = 1.38025e-07, global = -1.44894e-09, cumulative = 0.020143
smoothSolver:  Solving for omega, Initial residual = 3.72813e-08, Final residual = 9.81059e-09, No Iterations 2
smoothSolver:  Solving for k, Initial residual = 6.55611e-08, Final residual = 8.79979e-09, No Iterations 4
ExecutionTime = 8.12 s  ClockTime = 8 s

scalarTransport execute: age
smoothSolver:  Solving for age, Initial residual = 0.000246561, Final residual = 2.26859e-05, No Iterations 15

Time = 639

smoothSolver:  Solving for Ux, Initial residual = 4.38286e-07, Final residual = 3.79958e-08, No Iterations 5
smoothSolver:  Solving for Uy, Initial residual = 2.67938e-07, Final residual = 2.32456e-08, No Iterations 5
GAMG:  Solving for p, Initial residual = 1.04314e-06, Final residual = 5.93284e-08, No Iterations 2
time step continuity errors : sum local = 1.3691e-07, global = -1.31646e-09, cumulative = 0.020143
smoothSolver:  Solving for omega, Initial residual = 3.71769e-08, Final residual = 9.82084e-09, No Iterations 2
smoothSolver:  Solving for k, Initial residual = 6.46398e-08, Final residual = 8.66471e-09, No Iterations 4
ExecutionTime = 8.13 s  ClockTime = 8 s

scalarTransport execute: age
smoothSolver:  Solving for age, Initial residual = 0.000246143, Final residual = 2.26473e-05, No Iterations 15

Time = 640

smoothSolver:  Solving for Ux, Initial residual = 4.33159e-07, Final residual = 3.75469e-08, No Iterations 5
smoothSolver:  Solving for Uy, Initial residual = 2.64798e-07, Final residual = 2.29834e-08, No Iterations 5
GAMG:  Solving for p, Initial residual = 1.0319e-06, Final residual = 5.88108e-08, No Iterations 2
time step continuity errors : sum local = 1.35716e-07, global = -1.22648e-09, cumulative = 0.020143
smoothSolver:  Solving for omega, Initial residual = 3.70289e-08, Final residual = 9.81264e-09, No Iterations 2
smoothSolver:  Solving for k, Initial residual = 6.37271e-08, Final residual = 8.53198e-09, No Iterations 4
ExecutionTime = 8.15 s  ClockTime = 8 s

scalarTransport execute: age
smoothSolver:  Solving for age, Initial residual = 0.000245726, Final residual = 2.26089e-05, No Iterations 15

Time = 641

smoothSolver:  Solving for Ux, Initial residual = 4.28095e-07, Final residual = 3.71072e-08, No Iterations 5
smoothSolver:  Solving for Uy, Initial residual = 2.61552e-07, Final residual = 2.27141e-08, No Iterations 5
GAMG:  Solving for p, Initial residual = 1.02006e-06, Final residual = 5.81866e-08, No Iterations 2
time step continuity errors : sum local = 1.34275e-07, global = -1.14982e-09, cumulative = 0.020143
smoothSolver:  Solving for omega, Initial residual = 3.6836e-08, Final residual = 9.78821e-09, No Iterations 2
smoothSolver:  Solving for k, Initial residual = 6.28189e-08, Final residual = 8.40136e-09, No Iterations 4
ExecutionTime = 8.16 s  ClockTime = 8 s

scalarTransport execute: age
smoothSolver:  Solving for age, Initial residual = 0.000245311, Final residual = 2.25706e-05, No Iterations 15

Time = 642

smoothSolver:  Solving for Ux, Initial residual = 4.23114e-07, Final residual = 3.6673e-08, No Iterations 5
smoothSolver:  Solving for Uy, Initial residual = 2.58356e-07, Final residual = 2.24465e-08, No Iterations 5
GAMG:  Solving for p, Initial residual = 1.00804e-06, Final residual = 5.74894e-08, No Iterations 2
time step continuity errors : sum local = 1.32666e-07, global = -1.09981e-09, cumulative = 0.020143
smoothSolver:  Solving for omega, Initial residual = 3.66049e-08, Final residual = 9.7515e-09, No Iterations 2
smoothSolver:  Solving for k, Initial residual = 6.19201e-08, Final residual = 8.27267e-09, No Iterations 4
ExecutionTime = 8.17 s  ClockTime = 8 s

scalarTransport execute: age
smoothSolver:  Solving for age, Initial residual = 0.000244898, Final residual = 2.25324e-05, No Iterations 15

Time = 643

smoothSolver:  Solving for Ux, Initial residual = 4.18167e-07, Final residual = 3.6242e-08, No Iterations 5
smoothSolver:  Solving for Uy, Initial residual = 2.55209e-07, Final residual = 2.21826e-08, No Iterations 5
GAMG:  Solving for p, Initial residual = 9.96084e-07, Final residual = 5.6765e-08, No Iterations 2
time step continuity errors : sum local = 1.30994e-07, global = -1.07175e-09, cumulative = 0.020143
smoothSolver:  Solving for omega, Initial residual = 3.63532e-08, Final residual = 9.70521e-09, No Iterations 2
smoothSolver:  Solving for k, Initial residual = 6.1031e-08, Final residual = 8.14565e-09, No Iterations 4
ExecutionTime = 8.18 s  ClockTime = 8 s


SIMPLE solution converged in 643 iterations

scalarTransport execute: age
smoothSolver:  Solving for age, Initial residual = 0.000244486, Final residual = 2.24943e-05, No Iterations 15

End

