/*---------------------------------------------------------------------------*\
| =========                 |                                                 |
| \\      /  F ield         | OpenFOAM: The Open Source CFD Toolbox           |
|  \\    /   O peration     | Version:  v2012                                 |
|   \\  /    A nd           | Website:  www.openfoam.com                      |
|    \\/     M anipulation  |                                                 |
\*---------------------------------------------------------------------------*/
Build  : _7bdb509494-20201222 OPENFOAM=2012
Arch   : "LSB;label=32;scalar=64"
Exec   : simpleFoam
Date   : Feb 23 2023
Time   : 01:55:45
Host   : johnsDesktop
PID    : 18052
I/O    : uncollated
Case   : /home/john/of_runs/cases/0_52_3-00660_9
nProcs : 1
trapFpe: Floating point exception trapping enabled (FOAM_SIGFPE).
fileModificationChecking : Monitoring run-time modified files using timeStampMaster (fileModificationSkew 5, maxFileModificationPolls 20)
allowSystemOperations : Allowing user-supplied system call operations

// * * * * * * * * * * * * * * * * * * * * * * * * * * * * * * * * * * * * * //
Create time

Create mesh for time = 0


SIMPLE: convergence criteria
    field p	 tolerance 1e-06
    field U	 tolerance 1e-06
    field "(k|epsilon|omega|f|v2|age)"	 tolerance 1e-05

Reading field p

Reading field U

Reading/calculating face flux field phi

Selecting incompressible transport model Newtonian
Selecting turbulence model type RAS
Selecting RAS turbulence model kOmegaSST
Selecting patchDistMethod meshWave
RAS
{
    RASModel        kOmegaSST;
    turbulence      on;
    printCoeffs     on;
    alphaK1         0.85;
    alphaK2         1;
    alphaOmega1     0.5;
    alphaOmega2     0.856;
    gamma1          0.555556;
    gamma2          0.44;
    beta1           0.075;
    beta2           0.0828;
    betaStar        0.09;
    a1              0.31;
    b1              1;
    c1              10;
    F3              false;
    decayControl    false;
    kInf            0;
    omegaInf        0;
}

No MRF models present

No finite volume options present

Starting time loop

Selecting finite volume options type scalarSemiImplicitSource
    Source: unitySource
    - selecting all cells
    - selected 6057 cell(s) with volume 0.03174
Time = 1

smoothSolver:  Solving for Ux, Initial residual = 0, Final residual = 0, No Iterations 0
smoothSolver:  Solving for Uy, Initial residual = 1, Final residual = 0.0861378, No Iterations 2
GAMG:  Solving for p, Initial residual = 1, Final residual = 0.0543765, No Iterations 16
time step continuity errors : sum local = 0.00342637, global = -0.000444741, cumulative = -0.000444741
smoothSolver:  Solving for omega, Initial residual = 0.276082, Final residual = 0.0117815, No Iterations 3
smoothSolver:  Solving for k, Initial residual = 1, Final residual = 0.0786368, No Iterations 3
ExecutionTime = 0.06 s  ClockTime = 0 s

scalarTransport execute: age
smoothSolver:  Solving for age, Initial residual = 1, Final residual = 0.0898079, No Iterations 5

Time = 2

smoothSolver:  Solving for Ux, Initial residual = 0.53444, Final residual = 0.045266, No Iterations 6
smoothSolver:  Solving for Uy, Initial residual = 0.274642, Final residual = 0.0199244, No Iterations 6
GAMG:  Solving for p, Initial residual = 0.0509969, Final residual = 0.00438533, No Iterations 4
time step continuity errors : sum local = 0.0511666, global = 0.00438569, cumulative = 0.00394095
smoothSolver:  Solving for omega, Initial residual = 0.251927, Final residual = 0.0240269, No Iterations 3
smoothSolver:  Solving for k, Initial residual = 0.60216, Final residual = 0.0561378, No Iterations 4
ExecutionTime = 0.07 s  ClockTime = 0 s

scalarTransport execute: age
smoothSolver:  Solving for age, Initial residual = 0.582294, Final residual = 0.0479136, No Iterations 6

Time = 3

smoothSolver:  Solving for Ux, Initial residual = 0.233895, Final residual = 0.0176649, No Iterations 6
smoothSolver:  Solving for Uy, Initial residual = 0.0993625, Final residual = 0.00940772, No Iterations 5
GAMG:  Solving for p, Initial residual = 0.0577874, Final residual = 0.00446061, No Iterations 7
time step continuity errors : sum local = 0.0255486, global = 0.00210964, cumulative = 0.00605059
smoothSolver:  Solving for omega, Initial residual = 0.238019, Final residual = 0.0227974, No Iterations 4
smoothSolver:  Solving for k, Initial residual = 0.506707, Final residual = 0.037904, No Iterations 5
ExecutionTime = 0.08 s  ClockTime = 0 s

scalarTransport execute: age
smoothSolver:  Solving for age, Initial residual = 0.46705, Final residual = 0.0435369, No Iterations 17

Time = 4

smoothSolver:  Solving for Ux, Initial residual = 0.112774, Final residual = 0.00903557, No Iterations 4
smoothSolver:  Solving for Uy, Initial residual = 0.0598713, Final residual = 0.00446466, No Iterations 5
GAMG:  Solving for p, Initial residual = 0.0954862, Final residual = 0.00624827, No Iterations 3
time step continuity errors : sum local = 0.0168437, global = 0.0012622, cumulative = 0.00731279
smoothSolver:  Solving for omega, Initial residual = 0.13827, Final residual = 0.00946832, No Iterations 5
smoothSolver:  Solving for k, Initial residual = 0.43604, Final residual = 0.0369488, No Iterations 5
ExecutionTime = 0.1 s  ClockTime = 0 s

scalarTransport execute: age
smoothSolver:  Solving for age, Initial residual = 0.233777, Final residual = 0.019542, No Iterations 4

Time = 5

smoothSolver:  Solving for Ux, Initial residual = 0.0780845, Final residual = 0.00732644, No Iterations 5
smoothSolver:  Solving for Uy, Initial residual = 0.0332021, Final residual = 0.00244374, No Iterations 5
GAMG:  Solving for p, Initial residual = 0.084047, Final residual = 0.00410211, No Iterations 2
time step continuity errors : sum local = 0.00972104, global = 0.000950429, cumulative = 0.00826322
smoothSolver:  Solving for omega, Initial residual = 0.0957951, Final residual = 0.00725318, No Iterations 5
smoothSolver:  Solving for k, Initial residual = 0.341879, Final residual = 0.0313746, No Iterations 5
ExecutionTime = 0.11 s  ClockTime = 0 s

scalarTransport execute: age
smoothSolver:  Solving for age, Initial residual = 0.200929, Final residual = 0.019563, No Iterations 3

Time = 6

smoothSolver:  Solving for Ux, Initial residual = 0.0601898, Final residual = 0.00448866, No Iterations 6
smoothSolver:  Solving for Uy, Initial residual = 0.0268282, Final residual = 0.00222998, No Iterations 5
GAMG:  Solving for p, Initial residual = 0.0673156, Final residual = 0.00460381, No Iterations 2
time step continuity errors : sum local = 0.0107819, global = 6.08099e-05, cumulative = 0.00832403
smoothSolver:  Solving for omega, Initial residual = 0.0742375, Final residual = 0.00604368, No Iterations 5
smoothSolver:  Solving for k, Initial residual = 0.273356, Final residual = 0.0266593, No Iterations 5
ExecutionTime = 0.12 s  ClockTime = 0 s

scalarTransport execute: age
smoothSolver:  Solving for age, Initial residual = 0.169786, Final residual = 0.0143701, No Iterations 4

Time = 7

smoothSolver:  Solving for Ux, Initial residual = 0.051995, Final residual = 0.00394459, No Iterations 6
smoothSolver:  Solving for Uy, Initial residual = 0.0223164, Final residual = 0.00197761, No Iterations 5
GAMG:  Solving for p, Initial residual = 0.0540032, Final residual = 0.00406048, No Iterations 3
time step continuity errors : sum local = 0.00963066, global = -0.000339667, cumulative = 0.00798436
smoothSolver:  Solving for omega, Initial residual = 0.0558709, Final residual = 0.00487569, No Iterations 5
smoothSolver:  Solving for k, Initial residual = 0.226416, Final residual = 0.0146144, No Iterations 6
ExecutionTime = 0.13 s  ClockTime = 0 s

scalarTransport execute: age
smoothSolver:  Solving for age, Initial residual = 0.140246, Final residual = 0.0135718, No Iterations 3

Time = 8

smoothSolver:  Solving for Ux, Initial residual = 0.0351735, Final residual = 0.00316108, No Iterations 5
smoothSolver:  Solving for Uy, Initial residual = 0.0206936, Final residual = 0.00195599, No Iterations 5
GAMG:  Solving for p, Initial residual = 0.0421078, Final residual = 0.0037587, No Iterations 2
time step continuity errors : sum local = 0.00986991, global = -0.000547905, cumulative = 0.00743645
smoothSolver:  Solving for omega, Initial residual = 0.0453226, Final residual = 0.00408517, No Iterations 5
smoothSolver:  Solving for k, Initial residual = 0.192987, Final residual = 0.0129228, No Iterations 6
ExecutionTime = 0.14 s  ClockTime = 0 s

scalarTransport execute: age
smoothSolver:  Solving for age, Initial residual = 0.123904, Final residual = 0.0103865, No Iterations 4

Time = 9

smoothSolver:  Solving for Ux, Initial residual = 0.0292759, Final residual = 0.00286093, No Iterations 5
smoothSolver:  Solving for Uy, Initial residual = 0.0196901, Final residual = 0.00184176, No Iterations 5
GAMG:  Solving for p, Initial residual = 0.0345908, Final residual = 0.00271936, No Iterations 2
time step continuity errors : sum local = 0.00755465, global = -0.000670956, cumulative = 0.0067655
smoothSolver:  Solving for omega, Initial residual = 0.037174, Final residual = 0.00345825, No Iterations 5
smoothSolver:  Solving for k, Initial residual = 0.167548, Final residual = 0.0115559, No Iterations 6
ExecutionTime = 0.16 s  ClockTime = 0 s

scalarTransport execute: age
smoothSolver:  Solving for age, Initial residual = 0.104887, Final residual = 0.00812211, No Iterations 4

Time = 10

smoothSolver:  Solving for Ux, Initial residual = 0.0277328, Final residual = 0.00183568, No Iterations 6
smoothSolver:  Solving for Uy, Initial residual = 0.0175789, Final residual = 0.00165425, No Iterations 5
GAMG:  Solving for p, Initial residual = 0.0287751, Final residual = 0.00132431, No Iterations 2
time step continuity errors : sum local = 0.00383052, global = -0.00052511, cumulative = 0.00624039
smoothSolver:  Solving for omega, Initial residual = 0.0311215, Final residual = 0.00296734, No Iterations 5
smoothSolver:  Solving for k, Initial residual = 0.147606, Final residual = 0.0104398, No Iterations 6
ExecutionTime = 0.17 s  ClockTime = 0 s

scalarTransport execute: age
smoothSolver:  Solving for age, Initial residual = 0.0874971, Final residual = 0.00734098, No Iterations 3

Time = 11

smoothSolver:  Solving for Ux, Initial residual = 0.0262566, Final residual = 0.00179156, No Iterations 6
smoothSolver:  Solving for Uy, Initial residual = 0.0167134, Final residual = 0.00166103, No Iterations 5
GAMG:  Solving for p, Initial residual = 0.0249378, Final residual = 0.000914436, No Iterations 2
time step continuity errors : sum local = 0.00269572, global = -0.000381915, cumulative = 0.00585847
smoothSolver:  Solving for omega, Initial residual = 0.026101, Final residual = 0.00254932, No Iterations 5
smoothSolver:  Solving for k, Initial residual = 0.13181, Final residual = 0.0095084, No Iterations 6
ExecutionTime = 0.18 s  ClockTime = 0 s

scalarTransport execute: age
smoothSolver:  Solving for age, Initial residual = 0.0756522, Final residual = 0.00636627, No Iterations 3

Time = 12

smoothSolver:  Solving for Ux, Initial residual = 0.0249835, Final residual = 0.00172848, No Iterations 6
smoothSolver:  Solving for Uy, Initial residual = 0.0162787, Final residual = 0.00111242, No Iterations 6
GAMG:  Solving for p, Initial residual = 0.0225869, Final residual = 0.000937627, No Iterations 2
time step continuity errors : sum local = 0.00277981, global = -0.000279394, cumulative = 0.00557908
smoothSolver:  Solving for omega, Initial residual = 0.0223448, Final residual = 0.00221363, No Iterations 5
smoothSolver:  Solving for k, Initial residual = 0.118868, Final residual = 0.00871796, No Iterations 6
ExecutionTime = 0.19 s  ClockTime = 0 s

scalarTransport execute: age
smoothSolver:  Solving for age, Initial residual = 0.0667303, Final residual = 0.00569004, No Iterations 3

Time = 13

smoothSolver:  Solving for Ux, Initial residual = 0.024076, Final residual = 0.00168757, No Iterations 6
smoothSolver:  Solving for Uy, Initial residual = 0.0157878, Final residual = 0.00110747, No Iterations 6
GAMG:  Solving for p, Initial residual = 0.0210076, Final residual = 0.000967963, No Iterations 2
time step continuity errors : sum local = 0.0028851, global = -0.000171436, cumulative = 0.00540764
smoothSolver:  Solving for omega, Initial residual = 0.0192789, Final residual = 0.0012369, No Iterations 6
smoothSolver:  Solving for k, Initial residual = 0.107826, Final residual = 0.0080225, No Iterations 6
ExecutionTime = 0.2 s  ClockTime = 0 s

scalarTransport execute: age
smoothSolver:  Solving for age, Initial residual = 0.0603238, Final residual = 0.00535164, No Iterations 3

Time = 14

smoothSolver:  Solving for Ux, Initial residual = 0.0232775, Final residual = 0.00164707, No Iterations 6
smoothSolver:  Solving for Uy, Initial residual = 0.0155322, Final residual = 0.00110758, No Iterations 6
GAMG:  Solving for p, Initial residual = 0.0198616, Final residual = 0.000952925, No Iterations 2
time step continuity errors : sum local = 0.00284837, global = -6.82007e-05, cumulative = 0.00533944
smoothSolver:  Solving for omega, Initial residual = 0.0166243, Final residual = 0.00108126, No Iterations 6
smoothSolver:  Solving for k, Initial residual = 0.0983638, Final residual = 0.00741162, No Iterations 6
ExecutionTime = 0.21 s  ClockTime = 0 s

scalarTransport execute: age
smoothSolver:  Solving for age, Initial residual = 0.055185, Final residual = 0.00505023, No Iterations 3

Time = 15

smoothSolver:  Solving for Ux, Initial residual = 0.0225807, Final residual = 0.00160578, No Iterations 6
smoothSolver:  Solving for Uy, Initial residual = 0.0153469, Final residual = 0.0011078, No Iterations 6
GAMG:  Solving for p, Initial residual = 0.0189544, Final residual = 0.000924525, No Iterations 2
time step continuity errors : sum local = 0.00276362, global = 3.69331e-05, cumulative = 0.00537638
smoothSolver:  Solving for omega, Initial residual = 0.0144781, Final residual = 0.000951599, No Iterations 6
smoothSolver:  Solving for k, Initial residual = 0.090336, Final residual = 0.00687936, No Iterations 6
ExecutionTime = 0.23 s  ClockTime = 0 s

scalarTransport execute: age
smoothSolver:  Solving for age, Initial residual = 0.0508537, Final residual = 0.00464043, No Iterations 3

Time = 16

smoothSolver:  Solving for Ux, Initial residual = 0.0218619, Final residual = 0.00156183, No Iterations 6
smoothSolver:  Solving for Uy, Initial residual = 0.0152502, Final residual = 0.00110872, No Iterations 6
GAMG:  Solving for p, Initial residual = 0.0181053, Final residual = 0.000894342, No Iterations 2
time step continuity errors : sum local = 0.00266735, global = 0.000124297, cumulative = 0.00550067
smoothSolver:  Solving for omega, Initial residual = 0.0127441, Final residual = 0.000843196, No Iterations 6
smoothSolver:  Solving for k, Initial residual = 0.0834415, Final residual = 0.0064114, No Iterations 6
ExecutionTime = 0.24 s  ClockTime = 0 s

scalarTransport execute: age
smoothSolver:  Solving for age, Initial residual = 0.0469079, Final residual = 0.0045944, No Iterations 3

Time = 17

smoothSolver:  Solving for Ux, Initial residual = 0.0211338, Final residual = 0.00151719, No Iterations 6
smoothSolver:  Solving for Uy, Initial residual = 0.015147, Final residual = 0.0011073, No Iterations 6
GAMG:  Solving for p, Initial residual = 0.0173779, Final residual = 0.000865437, No Iterations 2
time step continuity errors : sum local = 0.0025714, global = 0.00019054, cumulative = 0.00569121
smoothSolver:  Solving for omega, Initial residual = 0.0113093, Final residual = 0.000751843, No Iterations 6
smoothSolver:  Solving for k, Initial residual = 0.0774648, Final residual = 0.00599783, No Iterations 6
ExecutionTime = 0.25 s  ClockTime = 0 s

scalarTransport execute: age
smoothSolver:  Solving for age, Initial residual = 0.0432823, Final residual = 0.00354985, No Iterations 4

Time = 18

smoothSolver:  Solving for Ux, Initial residual = 0.0204328, Final residual = 0.00147252, No Iterations 6
smoothSolver:  Solving for Uy, Initial residual = 0.0150509, Final residual = 0.00110323, No Iterations 6
GAMG:  Solving for p, Initial residual = 0.0167703, Final residual = 0.000851667, No Iterations 2
time step continuity errors : sum local = 0.00251137, global = 0.000229426, cumulative = 0.00592064
smoothSolver:  Solving for omega, Initial residual = 0.010112, Final residual = 0.000674225, No Iterations 6
smoothSolver:  Solving for k, Initial residual = 0.0722302, Final residual = 0.0056291, No Iterations 6
ExecutionTime = 0.26 s  ClockTime = 0 s

scalarTransport execute: age
smoothSolver:  Solving for age, Initial residual = 0.0397781, Final residual = 0.0035097, No Iterations 4

Time = 19

smoothSolver:  Solving for Ux, Initial residual = 0.0197914, Final residual = 0.00143069, No Iterations 6
smoothSolver:  Solving for Uy, Initial residual = 0.0149328, Final residual = 0.00109829, No Iterations 6
GAMG:  Solving for p, Initial residual = 0.0163064, Final residual = 0.000848572, No Iterations 2
time step continuity errors : sum local = 0.0024767, global = 0.000250793, cumulative = 0.00617143
smoothSolver:  Solving for omega, Initial residual = 0.00910035, Final residual = 0.000607927, No Iterations 6
smoothSolver:  Solving for k, Initial residual = 0.0676078, Final residual = 0.00529817, No Iterations 6
ExecutionTime = 0.27 s  ClockTime = 0 s

scalarTransport execute: age
smoothSolver:  Solving for age, Initial residual = 0.0361154, Final residual = 0.00326415, No Iterations 4

Time = 20

smoothSolver:  Solving for Ux, Initial residual = 0.0192231, Final residual = 0.00139334, No Iterations 6
smoothSolver:  Solving for Uy, Initial residual = 0.0148037, Final residual = 0.00109418, No Iterations 6
GAMG:  Solving for p, Initial residual = 0.015823, Final residual = 0.000845734, No Iterations 2
time step continuity errors : sum local = 0.00244265, global = 0.000256071, cumulative = 0.0064275
smoothSolver:  Solving for omega, Initial residual = 0.00822396, Final residual = 0.000550839, No Iterations 6
smoothSolver:  Solving for k, Initial residual = 0.0634997, Final residual = 0.00500005, No Iterations 6
ExecutionTime = 0.28 s  ClockTime = 0 s

scalarTransport execute: age
smoothSolver:  Solving for age, Initial residual = 0.0327499, Final residual = 0.00305163, No Iterations 4

Time = 21

smoothSolver:  Solving for Ux, Initial residual = 0.0187342, Final residual = 0.0013624, No Iterations 6
smoothSolver:  Solving for Uy, Initial residual = 0.0146427, Final residual = 0.0010879, No Iterations 6
GAMG:  Solving for p, Initial residual = 0.0152678, Final residual = 0.000847146, No Iterations 2
time step continuity errors : sum local = 0.00242472, global = 0.000250443, cumulative = 0.00667795
smoothSolver:  Solving for omega, Initial residual = 0.00747686, Final residual = 0.000501178, No Iterations 6
smoothSolver:  Solving for k, Initial residual = 0.0598188, Final residual = 0.00472948, No Iterations 6
ExecutionTime = 0.29 s  ClockTime = 0 s

scalarTransport execute: age
smoothSolver:  Solving for age, Initial residual = 0.0292732, Final residual = 0.00239013, No Iterations 5

Time = 22

smoothSolver:  Solving for Ux, Initial residual = 0.0183314, Final residual = 0.00133656, No Iterations 6
smoothSolver:  Solving for Uy, Initial residual = 0.0144651, Final residual = 0.00107931, No Iterations 6
GAMG:  Solving for p, Initial residual = 0.0146707, Final residual = 0.000851805, No Iterations 2
time step continuity errors : sum local = 0.00241919, global = 0.000237461, cumulative = 0.00691541
smoothSolver:  Solving for omega, Initial residual = 0.00682472, Final residual = 0.000457667, No Iterations 6
smoothSolver:  Solving for k, Initial residual = 0.056503, Final residual = 0.00448313, No Iterations 6
ExecutionTime = 0.31 s  ClockTime = 0 s

scalarTransport execute: age
smoothSolver:  Solving for age, Initial residual = 0.0264457, Final residual = 0.00225103, No Iterations 5

Time = 23

smoothSolver:  Solving for Ux, Initial residual = 0.0179631, Final residual = 0.00131478, No Iterations 6
smoothSolver:  Solving for Uy, Initial residual = 0.0142519, Final residual = 0.00106801, No Iterations 6
GAMG:  Solving for p, Initial residual = 0.0140367, Final residual = 0.000855738, No Iterations 2
time step continuity errors : sum local = 0.00241351, global = 0.000220559, cumulative = 0.00713597
smoothSolver:  Solving for omega, Initial residual = 0.00625687, Final residual = 0.000419342, No Iterations 6
smoothSolver:  Solving for k, Initial residual = 0.0534957, Final residual = 0.00425748, No Iterations 6
ExecutionTime = 0.32 s  ClockTime = 0 s

scalarTransport execute: age
smoothSolver:  Solving for age, Initial residual = 0.0245419, Final residual = 0.00219277, No Iterations 5

Time = 24

smoothSolver:  Solving for Ux, Initial residual = 0.0176395, Final residual = 0.00129642, No Iterations 6
smoothSolver:  Solving for Uy, Initial residual = 0.0140255, Final residual = 0.00105461, No Iterations 6
GAMG:  Solving for p, Initial residual = 0.0134525, Final residual = 0.000857902, No Iterations 2
time step continuity errors : sum local = 0.00240389, global = 0.000202697, cumulative = 0.00733866
smoothSolver:  Solving for omega, Initial residual = 0.00575402, Final residual = 0.000385475, No Iterations 6
smoothSolver:  Solving for k, Initial residual = 0.0507576, Final residual = 0.0040502, No Iterations 6
ExecutionTime = 0.33 s  ClockTime = 0 s

scalarTransport execute: age
smoothSolver:  Solving for age, Initial residual = 0.0234249, Final residual = 0.00219135, No Iterations 5

Time = 25

smoothSolver:  Solving for Ux, Initial residual = 0.0173476, Final residual = 0.00128041, No Iterations 6
smoothSolver:  Solving for Uy, Initial residual = 0.0138206, Final residual = 0.00103983, No Iterations 6
GAMG:  Solving for p, Initial residual = 0.0129739, Final residual = 0.000853566, No Iterations 2
time step continuity errors : sum local = 0.00237766, global = 0.000185942, cumulative = 0.0075246
smoothSolver:  Solving for omega, Initial residual = 0.0053108, Final residual = 0.000355621, No Iterations 6
smoothSolver:  Solving for k, Initial residual = 0.0482437, Final residual = 0.00385845, No Iterations 6
ExecutionTime = 0.34 s  ClockTime = 0 s

scalarTransport execute: age
smoothSolver:  Solving for age, Initial residual = 0.0226106, Final residual = 0.0022223, No Iterations 5

Time = 26

smoothSolver:  Solving for Ux, Initial residual = 0.0170824, Final residual = 0.00126809, No Iterations 6
smoothSolver:  Solving for Uy, Initial residual = 0.0136254, Final residual = 0.00102358, No Iterations 6
GAMG:  Solving for p, Initial residual = 0.0127991, Final residual = 0.000847394, No Iterations 2
time step continuity errors : sum local = 0.00234737, global = 0.000171281, cumulative = 0.00769588
smoothSolver:  Solving for omega, Initial residual = 0.00492209, Final residual = 0.000329306, No Iterations 6
smoothSolver:  Solving for k, Initial residual = 0.0459287, Final residual = 0.00368058, No Iterations 6
ExecutionTime = 0.35 s  ClockTime = 0 s

scalarTransport execute: age
smoothSolver:  Solving for age, Initial residual = 0.0216906, Final residual = 0.00187842, No Iterations 6

Time = 27

smoothSolver:  Solving for Ux, Initial residual = 0.0168556, Final residual = 0.00125881, No Iterations 6
smoothSolver:  Solving for Uy, Initial residual = 0.0134434, Final residual = 0.00100665, No Iterations 6
GAMG:  Solving for p, Initial residual = 0.0129886, Final residual = 0.000845529, No Iterations 2
time step continuity errors : sum local = 0.00233094, global = 0.000161502, cumulative = 0.00785739
smoothSolver:  Solving for omega, Initial residual = 0.00457914, Final residual = 0.00030579, No Iterations 6
smoothSolver:  Solving for k, Initial residual = 0.0437922, Final residual = 0.00351523, No Iterations 6
ExecutionTime = 0.37 s  ClockTime = 0 s

scalarTransport execute: age
smoothSolver:  Solving for age, Initial residual = 0.0206005, Final residual = 0.00190255, No Iterations 6

Time = 28

smoothSolver:  Solving for Ux, Initial residual = 0.0166859, Final residual = 0.00125239, No Iterations 6
smoothSolver:  Solving for Uy, Initial residual = 0.0132551, Final residual = 0.000988185, No Iterations 6
GAMG:  Solving for p, Initial residual = 0.0132829, Final residual = 0.000858643, No Iterations 2
time step continuity errors : sum local = 0.00235763, global = 0.000156537, cumulative = 0.00801392
smoothSolver:  Solving for omega, Initial residual = 0.00427419, Final residual = 0.000284561, No Iterations 6
smoothSolver:  Solving for k, Initial residual = 0.0418007, Final residual = 0.00336015, No Iterations 6
ExecutionTime = 0.38 s  ClockTime = 0 s

scalarTransport execute: age
smoothSolver:  Solving for age, Initial residual = 0.0195187, Final residual = 0.00164514, No Iterations 7

Time = 29

smoothSolver:  Solving for Ux, Initial residual = 0.0165675, Final residual = 0.0012477, No Iterations 6
smoothSolver:  Solving for Uy, Initial residual = 0.0130367, Final residual = 0.000968964, No Iterations 6
GAMG:  Solving for p, Initial residual = 0.0133945, Final residual = 0.000904097, No Iterations 2
time step continuity errors : sum local = 0.00246376, global = 0.000154475, cumulative = 0.0081684
smoothSolver:  Solving for omega, Initial residual = 0.00400025, Final residual = 0.000265284, No Iterations 6
smoothSolver:  Solving for k, Initial residual = 0.0399419, Final residual = 0.00321464, No Iterations 6
ExecutionTime = 0.39 s  ClockTime = 0 s

scalarTransport execute: age
smoothSolver:  Solving for age, Initial residual = 0.0185395, Final residual = 0.0017585, No Iterations 7

Time = 30

smoothSolver:  Solving for Ux, Initial residual = 0.0164704, Final residual = 0.00124254, No Iterations 6
smoothSolver:  Solving for Uy, Initial residual = 0.0127759, Final residual = 0.00094798, No Iterations 6
GAMG:  Solving for p, Initial residual = 0.0133226, Final residual = 0.000945763, No Iterations 2
time step continuity errors : sum local = 0.00256225, global = 0.000153608, cumulative = 0.00832201
smoothSolver:  Solving for omega, Initial residual = 0.00375255, Final residual = 0.000247732, No Iterations 6
smoothSolver:  Solving for k, Initial residual = 0.0382063, Final residual = 0.00307788, No Iterations 6
ExecutionTime = 0.4 s  ClockTime = 0 s

scalarTransport execute: age
smoothSolver:  Solving for age, Initial residual = 0.0177353, Final residual = 0.00155328, No Iterations 8

Time = 31

smoothSolver:  Solving for Ux, Initial residual = 0.0163762, Final residual = 0.00123673, No Iterations 6
smoothSolver:  Solving for Uy, Initial residual = 0.0124692, Final residual = 0.000925024, No Iterations 6
GAMG:  Solving for p, Initial residual = 0.0129624, Final residual = 0.000972925, No Iterations 2
time step continuity errors : sum local = 0.00262245, global = 0.000151372, cumulative = 0.00847338
smoothSolver:  Solving for omega, Initial residual = 0.00352545, Final residual = 0.000231698, No Iterations 6
smoothSolver:  Solving for k, Initial residual = 0.0365769, Final residual = 0.00294906, No Iterations 6
ExecutionTime = 0.42 s  ClockTime = 1 s

scalarTransport execute: age
smoothSolver:  Solving for age, Initial residual = 0.0172168, Final residual = 0.00163814, No Iterations 8

Time = 32

smoothSolver:  Solving for Ux, Initial residual = 0.0162804, Final residual = 0.00122896, No Iterations 6
smoothSolver:  Solving for Uy, Initial residual = 0.012128, Final residual = 0.000900651, No Iterations 6
GAMG:  Solving for p, Initial residual = 0.0123923, Final residual = 0.000990963, No Iterations 2
time step continuity errors : sum local = 0.00265918, global = 0.000145397, cumulative = 0.00861878
smoothSolver:  Solving for omega, Initial residual = 0.00332102, Final residual = 0.000216982, No Iterations 6
smoothSolver:  Solving for k, Initial residual = 0.0350473, Final residual = 0.00282795, No Iterations 6
ExecutionTime = 0.43 s  ClockTime = 1 s

scalarTransport execute: age
smoothSolver:  Solving for age, Initial residual = 0.016929, Final residual = 0.00151372, No Iterations 9

Time = 33

smoothSolver:  Solving for Ux, Initial residual = 0.0161513, Final residual = 0.00121952, No Iterations 6
smoothSolver:  Solving for Uy, Initial residual = 0.0117691, Final residual = 0.000876407, No Iterations 6
GAMG:  Solving for p, Initial residual = 0.0117688, Final residual = 0.00100965, No Iterations 2
time step continuity errors : sum local = 0.00269777, global = 0.00013515, cumulative = 0.00875393
smoothSolver:  Solving for omega, Initial residual = 0.00313373, Final residual = 0.00020342, No Iterations 6
smoothSolver:  Solving for k, Initial residual = 0.0336092, Final residual = 0.00271431, No Iterations 6
ExecutionTime = 0.44 s  ClockTime = 1 s

scalarTransport execute: age
smoothSolver:  Solving for age, Initial residual = 0.016837, Final residual = 0.0016023, No Iterations 9

Time = 34

smoothSolver:  Solving for Ux, Initial residual = 0.0160089, Final residual = 0.00120799, No Iterations 6
smoothSolver:  Solving for Uy, Initial residual = 0.0114109, Final residual = 0.000854019, No Iterations 6
GAMG:  Solving for p, Initial residual = 0.0113076, Final residual = 0.00103207, No Iterations 2
time step continuity errors : sum local = 0.002748, global = 0.000123554, cumulative = 0.00887748
smoothSolver:  Solving for omega, Initial residual = 0.00295975, Final residual = 0.000295395, No Iterations 5
smoothSolver:  Solving for k, Initial residual = 0.032287, Final residual = 0.0026101, No Iterations 6
ExecutionTime = 0.45 s  ClockTime = 1 s

scalarTransport execute: age
smoothSolver:  Solving for age, Initial residual = 0.0170142, Final residual = 0.00146697, No Iterations 10

Time = 35

smoothSolver:  Solving for Ux, Initial residual = 0.01587, Final residual = 0.00119774, No Iterations 6
smoothSolver:  Solving for Uy, Initial residual = 0.0111037, Final residual = 0.000833956, No Iterations 6
GAMG:  Solving for p, Initial residual = 0.0108912, Final residual = 0.00107185, No Iterations 2
time step continuity errors : sum local = 0.00283667, global = 0.000114273, cumulative = 0.00899175
smoothSolver:  Solving for omega, Initial residual = 0.00281428, Final residual = 0.000279088, No Iterations 5
smoothSolver:  Solving for k, Initial residual = 0.0310608, Final residual = 0.00251331, No Iterations 6
ExecutionTime = 0.46 s  ClockTime = 1 s

scalarTransport execute: age
smoothSolver:  Solving for age, Initial residual = 0.0173043, Final residual = 0.00154449, No Iterations 10

Time = 36

smoothSolver:  Solving for Ux, Initial residual = 0.0157525, Final residual = 0.00118597, No Iterations 6
smoothSolver:  Solving for Uy, Initial residual = 0.0108292, Final residual = 0.000815364, No Iterations 6
GAMG:  Solving for p, Initial residual = 0.0106493, Final residual = 0.000918324, No Iterations 3
time step continuity errors : sum local = 0.00241753, global = 6.68047e-05, cumulative = 0.00905856
smoothSolver:  Solving for omega, Initial residual = 0.00270467, Final residual = 0.000264518, No Iterations 5
smoothSolver:  Solving for k, Initial residual = 0.0299027, Final residual = 0.00242264, No Iterations 6
ExecutionTime = 0.48 s  ClockTime = 1 s

scalarTransport execute: age
smoothSolver:  Solving for age, Initial residual = 0.0179044, Final residual = 0.00167113, No Iterations 10

Time = 37

smoothSolver:  Solving for Ux, Initial residual = 0.0158587, Final residual = 0.00118702, No Iterations 6
smoothSolver:  Solving for Uy, Initial residual = 0.0107124, Final residual = 0.000804537, No Iterations 6
GAMG:  Solving for p, Initial residual = 0.0105789, Final residual = 0.000903434, No Iterations 2
time step continuity errors : sum local = 0.00235463, global = 7.77611e-05, cumulative = 0.00913632
smoothSolver:  Solving for omega, Initial residual = 0.00255084, Final residual = 0.000249963, No Iterations 5
smoothSolver:  Solving for k, Initial residual = 0.0288308, Final residual = 0.0023375, No Iterations 6
ExecutionTime = 0.49 s  ClockTime = 1 s

scalarTransport execute: age
smoothSolver:  Solving for age, Initial residual = 0.0186138, Final residual = 0.00182778, No Iterations 10

Time = 38

smoothSolver:  Solving for Ux, Initial residual = 0.0155621, Final residual = 0.00116353, No Iterations 6
smoothSolver:  Solving for Uy, Initial residual = 0.0103349, Final residual = 0.000784, No Iterations 6
GAMG:  Solving for p, Initial residual = 0.0104365, Final residual = 0.000695612, No Iterations 3
time step continuity errors : sum local = 0.00180837, global = 5.68485e-05, cumulative = 0.00919317
smoothSolver:  Solving for omega, Initial residual = 0.00242833, Final residual = 0.000236223, No Iterations 5
smoothSolver:  Solving for k, Initial residual = 0.0278196, Final residual = 0.00225748, No Iterations 6
ExecutionTime = 0.5 s  ClockTime = 1 s

scalarTransport execute: age
smoothSolver:  Solving for age, Initial residual = 0.0191233, Final residual = 0.00175329, No Iterations 11

Time = 39

smoothSolver:  Solving for Ux, Initial residual = 0.0153836, Final residual = 0.00113991, No Iterations 6
smoothSolver:  Solving for Uy, Initial residual = 0.0101167, Final residual = 0.000769694, No Iterations 6
GAMG:  Solving for p, Initial residual = 0.00994544, Final residual = 0.000982626, No Iterations 2
time step continuity errors : sum local = 0.00255307, global = 6.61504e-05, cumulative = 0.00925932
smoothSolver:  Solving for omega, Initial residual = 0.00231483, Final residual = 0.000223593, No Iterations 5
smoothSolver:  Solving for k, Initial residual = 0.0268795, Final residual = 0.00218188, No Iterations 6
ExecutionTime = 0.51 s  ClockTime = 1 s

scalarTransport execute: age
smoothSolver:  Solving for age, Initial residual = 0.0199751, Final residual = 0.00195704, No Iterations 11

Time = 40

smoothSolver:  Solving for Ux, Initial residual = 0.0151243, Final residual = 0.00111769, No Iterations 6
smoothSolver:  Solving for Uy, Initial residual = 0.00988067, Final residual = 0.000754299, No Iterations 6
GAMG:  Solving for p, Initial residual = 0.0100656, Final residual = 0.000843577, No Iterations 3
time step continuity errors : sum local = 0.00218436, global = 6.02262e-05, cumulative = 0.00931954
smoothSolver:  Solving for omega, Initial residual = 0.00221162, Final residual = 0.000211525, No Iterations 5
smoothSolver:  Solving for k, Initial residual = 0.0259952, Final residual = 0.00211055, No Iterations 6
ExecutionTime = 0.52 s  ClockTime = 1 s

scalarTransport execute: age
smoothSolver:  Solving for age, Initial residual = 0.0208316, Final residual = 0.00184754, No Iterations 12

Time = 41

smoothSolver:  Solving for Ux, Initial residual = 0.0150179, Final residual = 0.00109794, No Iterations 6
smoothSolver:  Solving for Uy, Initial residual = 0.00977373, Final residual = 0.000748538, No Iterations 6
GAMG:  Solving for p, Initial residual = 0.00982595, Final residual = 0.000651749, No Iterations 3
time step continuity errors : sum local = 0.00168498, global = 5.0517e-05, cumulative = 0.00937006
smoothSolver:  Solving for omega, Initial residual = 0.00211772, Final residual = 0.000200072, No Iterations 5
smoothSolver:  Solving for k, Initial residual = 0.0251758, Final residual = 0.00204338, No Iterations 6
ExecutionTime = 0.54 s  ClockTime = 1 s

scalarTransport execute: age
smoothSolver:  Solving for age, Initial residual = 0.0217306, Final residual = 0.00197629, No Iterations 12

Time = 42

smoothSolver:  Solving for Ux, Initial residual = 0.0148573, Final residual = 0.00108176, No Iterations 6
smoothSolver:  Solving for Uy, Initial residual = 0.00969101, Final residual = 0.0007428, No Iterations 6
GAMG:  Solving for p, Initial residual = 0.00967193, Final residual = 0.000616965, No Iterations 3
time step continuity errors : sum local = 0.00158645, global = 5.00406e-05, cumulative = 0.0094201
smoothSolver:  Solving for omega, Initial residual = 0.002024, Final residual = 0.000190305, No Iterations 5
smoothSolver:  Solving for k, Initial residual = 0.0244016, Final residual = 0.00198004, No Iterations 6
ExecutionTime = 0.55 s  ClockTime = 1 s

scalarTransport execute: age
smoothSolver:  Solving for age, Initial residual = 0.0222676, Final residual = 0.00208064, No Iterations 12

Time = 43

smoothSolver:  Solving for Ux, Initial residual = 0.0146379, Final residual = 0.00106236, No Iterations 6
smoothSolver:  Solving for Uy, Initial residual = 0.00957067, Final residual = 0.000736378, No Iterations 6
GAMG:  Solving for p, Initial residual = 0.00948857, Final residual = 0.000588861, No Iterations 3
time step continuity errors : sum local = 0.00150829, global = 4.72892e-05, cumulative = 0.00946739
smoothSolver:  Solving for omega, Initial residual = 0.00192813, Final residual = 0.000180504, No Iterations 5
smoothSolver:  Solving for k, Initial residual = 0.0236806, Final residual = 0.00192043, No Iterations 6
ExecutionTime = 0.56 s  ClockTime = 1 s

scalarTransport execute: age
smoothSolver:  Solving for age, Initial residual = 0.0223436, Final residual = 0.00208056, No Iterations 12

Time = 44

smoothSolver:  Solving for Ux, Initial residual = 0.0144119, Final residual = 0.00104111, No Iterations 6
smoothSolver:  Solving for Uy, Initial residual = 0.00945342, Final residual = 0.000730461, No Iterations 6
GAMG:  Solving for p, Initial residual = 0.00929372, Final residual = 0.000613311, No Iterations 3
time step continuity errors : sum local = 0.00156368, global = 4.76545e-05, cumulative = 0.00951505
smoothSolver:  Solving for omega, Initial residual = 0.00185587, Final residual = 0.000171796, No Iterations 5
smoothSolver:  Solving for k, Initial residual = 0.023, Final residual = 0.00186414, No Iterations 6
ExecutionTime = 0.57 s  ClockTime = 1 s

scalarTransport execute: age
smoothSolver:  Solving for age, Initial residual = 0.0218933, Final residual = 0.00192044, No Iterations 12

Time = 45

smoothSolver:  Solving for Ux, Initial residual = 0.0141567, Final residual = 0.00101807, No Iterations 6
smoothSolver:  Solving for Uy, Initial residual = 0.00935047, Final residual = 0.000725277, No Iterations 6
GAMG:  Solving for p, Initial residual = 0.0090768, Final residual = 0.000611276, No Iterations 3
time step continuity errors : sum local = 0.00155008, global = 4.93414e-05, cumulative = 0.00956439
smoothSolver:  Solving for omega, Initial residual = 0.00177792, Final residual = 0.000163347, No Iterations 5
smoothSolver:  Solving for k, Initial residual = 0.0223661, Final residual = 0.00181114, No Iterations 6
ExecutionTime = 0.59 s  ClockTime = 1 s

scalarTransport execute: age
smoothSolver:  Solving for age, Initial residual = 0.0212579, Final residual = 0.00199144, No Iterations 11

Time = 46

smoothSolver:  Solving for Ux, Initial residual = 0.0139044, Final residual = 0.000995038, No Iterations 6
smoothSolver:  Solving for Uy, Initial residual = 0.00926314, Final residual = 0.000721155, No Iterations 6
GAMG:  Solving for p, Initial residual = 0.00883048, Final residual = 0.000623727, No Iterations 3
time step continuity errors : sum local = 0.00157227, global = 5.05553e-05, cumulative = 0.00961494
smoothSolver:  Solving for omega, Initial residual = 0.00171494, Final residual = 0.000155835, No Iterations 5
smoothSolver:  Solving for k, Initial residual = 0.0217678, Final residual = 0.00176103, No Iterations 6
ExecutionTime = 0.6 s  ClockTime = 1 s

scalarTransport execute: age
smoothSolver:  Solving for age, Initial residual = 0.0202165, Final residual = 0.00177145, No Iterations 11

Time = 47

smoothSolver:  Solving for Ux, Initial residual = 0.0136364, Final residual = 0.000971927, No Iterations 6
smoothSolver:  Solving for Uy, Initial residual = 0.00918761, Final residual = 0.000717811, No Iterations 6
GAMG:  Solving for p, Initial residual = 0.00861306, Final residual = 0.000621413, No Iterations 3
time step continuity errors : sum local = 0.00155659, global = 5.10096e-05, cumulative = 0.00966595
smoothSolver:  Solving for omega, Initial residual = 0.00164667, Final residual = 0.000148622, No Iterations 5
smoothSolver:  Solving for k, Initial residual = 0.0212069, Final residual = 0.00171355, No Iterations 6
ExecutionTime = 0.61 s  ClockTime = 1 s

scalarTransport execute: age
smoothSolver:  Solving for age, Initial residual = 0.0193821, Final residual = 0.00183433, No Iterations 10

Time = 48

smoothSolver:  Solving for Ux, Initial residual = 0.01336, Final residual = 0.000948374, No Iterations 6
smoothSolver:  Solving for Uy, Initial residual = 0.0091033, Final residual = 0.000713796, No Iterations 6
GAMG:  Solving for p, Initial residual = 0.00839202, Final residual = 0.000624547, No Iterations 3
time step continuity errors : sum local = 0.00155364, global = 5.28321e-05, cumulative = 0.00971878
smoothSolver:  Solving for omega, Initial residual = 0.00158998, Final residual = 0.00014212, No Iterations 5
smoothSolver:  Solving for k, Initial residual = 0.0206757, Final residual = 0.00166833, No Iterations 6
ExecutionTime = 0.62 s  ClockTime = 1 s

scalarTransport execute: age
smoothSolver:  Solving for age, Initial residual = 0.018563, Final residual = 0.00170242, No Iterations 10

Time = 49

smoothSolver:  Solving for Ux, Initial residual = 0.0130627, Final residual = 0.000923717, No Iterations 6
smoothSolver:  Solving for Uy, Initial residual = 0.00902055, Final residual = 0.000709856, No Iterations 6
GAMG:  Solving for p, Initial residual = 0.00821615, Final residual = 0.000635999, No Iterations 3
time step continuity errors : sum local = 0.0015704, global = 5.45313e-05, cumulative = 0.00977332
smoothSolver:  Solving for omega, Initial residual = 0.00153108, Final residual = 0.000135935, No Iterations 5
smoothSolver:  Solving for k, Initial residual = 0.0201748, Final residual = 0.00162526, No Iterations 6
ExecutionTime = 0.64 s  ClockTime = 1 s

scalarTransport execute: age
smoothSolver:  Solving for age, Initial residual = 0.0179889, Final residual = 0.00156845, No Iterations 10

Time = 50

smoothSolver:  Solving for Ux, Initial residual = 0.0127603, Final residual = 0.000898429, No Iterations 6
smoothSolver:  Solving for Uy, Initial residual = 0.00893434, Final residual = 0.000704972, No Iterations 6
GAMG:  Solving for p, Initial residual = 0.00804811, Final residual = 0.000637853, No Iterations 3
time step continuity errors : sum local = 0.00156323, global = 5.72024e-05, cumulative = 0.00983052
smoothSolver:  Solving for omega, Initial residual = 0.00148015, Final residual = 0.000130207, No Iterations 5
smoothSolver:  Solving for k, Initial residual = 0.0196964, Final residual = 0.00158409, No Iterations 6
ExecutionTime = 0.65 s  ClockTime = 1 s

scalarTransport execute: age
smoothSolver:  Solving for age, Initial residual = 0.0173249, Final residual = 0.00169134, No Iterations 9

Time = 51

smoothSolver:  Solving for Ux, Initial residual = 0.0124553, Final residual = 0.000872712, No Iterations 6
smoothSolver:  Solving for Uy, Initial residual = 0.00885384, Final residual = 0.0006994, No Iterations 6
GAMG:  Solving for p, Initial residual = 0.00791036, Final residual = 0.000648957, No Iterations 3
time step continuity errors : sum local = 0.00157861, global = 5.9302e-05, cumulative = 0.00988982
smoothSolver:  Solving for omega, Initial residual = 0.00142615, Final residual = 0.000124455, No Iterations 5
smoothSolver:  Solving for k, Initial residual = 0.0192425, Final residual = 0.00154463, No Iterations 6
ExecutionTime = 0.66 s  ClockTime = 1 s

scalarTransport execute: age
smoothSolver:  Solving for age, Initial residual = 0.0167249, Final residual = 0.00162048, No Iterations 9

Time = 52

smoothSolver:  Solving for Ux, Initial residual = 0.0121565, Final residual = 0.000846938, No Iterations 6
smoothSolver:  Solving for Uy, Initial residual = 0.00875907, Final residual = 0.000691719, No Iterations 6
GAMG:  Solving for p, Initial residual = 0.00777099, Final residual = 0.000646244, No Iterations 3
time step continuity errors : sum local = 0.00156021, global = 6.19925e-05, cumulative = 0.00995181
smoothSolver:  Solving for omega, Initial residual = 0.00137027, Final residual = 0.000118557, No Iterations 5
smoothSolver:  Solving for k, Initial residual = 0.0188024, Final residual = 0.00150677, No Iterations 6
ExecutionTime = 0.67 s  ClockTime = 1 s

scalarTransport execute: age
smoothSolver:  Solving for age, Initial residual = 0.0159805, Final residual = 0.00154622, No Iterations 9

Time = 53

smoothSolver:  Solving for Ux, Initial residual = 0.0118565, Final residual = 0.000821174, No Iterations 6
smoothSolver:  Solving for Uy, Initial residual = 0.00865561, Final residual = 0.00068267, No Iterations 6
GAMG:  Solving for p, Initial residual = 0.00767764, Final residual = 0.00065751, No Iterations 3
time step continuity errors : sum local = 0.00157543, global = 6.38169e-05, cumulative = 0.0100156
smoothSolver:  Solving for omega, Initial residual = 0.00130742, Final residual = 0.000112635, No Iterations 5
smoothSolver:  Solving for k, Initial residual = 0.0183796, Final residual = 0.00147036, No Iterations 6
ExecutionTime = 0.68 s  ClockTime = 1 s

scalarTransport execute: age
smoothSolver:  Solving for age, Initial residual = 0.0152522, Final residual = 0.00147024, No Iterations 9

Time = 54

smoothSolver:  Solving for Ux, Initial residual = 0.0115659, Final residual = 0.000795862, No Iterations 6
smoothSolver:  Solving for Uy, Initial residual = 0.00853209, Final residual = 0.000670741, No Iterations 6
GAMG:  Solving for p, Initial residual = 0.00755828, Final residual = 0.000655377, No Iterations 3
time step continuity errors : sum local = 0.00155834, global = 6.59168e-05, cumulative = 0.0100815
smoothSolver:  Solving for omega, Initial residual = 0.00126862, Final residual = 0.000108207, No Iterations 5
smoothSolver:  Solving for k, Initial residual = 0.0179695, Final residual = 0.00143466, No Iterations 6
ExecutionTime = 0.7 s  ClockTime = 1 s

scalarTransport execute: age
smoothSolver:  Solving for age, Initial residual = 0.0145354, Final residual = 0.00138836, No Iterations 9

Time = 55

smoothSolver:  Solving for Ux, Initial residual = 0.0112925, Final residual = 0.000770997, No Iterations 6
smoothSolver:  Solving for Uy, Initial residual = 0.00838062, Final residual = 0.000656917, No Iterations 6
GAMG:  Solving for p, Initial residual = 0.00749281, Final residual = 0.00066271, No Iterations 3
time step continuity errors : sum local = 0.0015638, global = 6.71168e-05, cumulative = 0.0101487
smoothSolver:  Solving for omega, Initial residual = 0.00123611, Final residual = 0.000104136, No Iterations 5
smoothSolver:  Solving for k, Initial residual = 0.0175688, Final residual = 0.00139935, No Iterations 6
ExecutionTime = 0.71 s  ClockTime = 1 s

scalarTransport execute: age
smoothSolver:  Solving for age, Initial residual = 0.0139702, Final residual = 0.00130522, No Iterations 9

Time = 56

smoothSolver:  Solving for Ux, Initial residual = 0.0110274, Final residual = 0.000746756, No Iterations 6
smoothSolver:  Solving for Uy, Initial residual = 0.00820771, Final residual = 0.00064003, No Iterations 6
GAMG:  Solving for p, Initial residual = 0.00742086, Final residual = 0.000657524, No Iterations 3
time step continuity errors : sum local = 0.00154019, global = 6.8262e-05, cumulative = 0.0102169
smoothSolver:  Solving for omega, Initial residual = 0.00120388, Final residual = 0.000100351, No Iterations 5
smoothSolver:  Solving for k, Initial residual = 0.0171701, Final residual = 0.00136428, No Iterations 6
ExecutionTime = 0.72 s  ClockTime = 1 s

scalarTransport execute: age
smoothSolver:  Solving for age, Initial residual = 0.0132543, Final residual = 0.00123536, No Iterations 9

Time = 57

smoothSolver:  Solving for Ux, Initial residual = 0.0107579, Final residual = 0.000722634, No Iterations 6
smoothSolver:  Solving for Uy, Initial residual = 0.00801319, Final residual = 0.000621922, No Iterations 6
GAMG:  Solving for p, Initial residual = 0.0073926, Final residual = 0.000658708, No Iterations 3
time step continuity errors : sum local = 0.0015321, global = 6.82151e-05, cumulative = 0.0102851
smoothSolver:  Solving for omega, Initial residual = 0.00117449, Final residual = 9.6829e-05, No Iterations 5
smoothSolver:  Solving for k, Initial residual = 0.0167725, Final residual = 0.00132924, No Iterations 6
ExecutionTime = 0.73 s  ClockTime = 1 s

scalarTransport execute: age
smoothSolver:  Solving for age, Initial residual = 0.0126436, Final residual = 0.00117578, No Iterations 9

Time = 58

smoothSolver:  Solving for Ux, Initial residual = 0.0104911, Final residual = 0.000699, No Iterations 6
smoothSolver:  Solving for Uy, Initial residual = 0.00779662, Final residual = 0.00060141, No Iterations 6
GAMG:  Solving for p, Initial residual = 0.00735551, Final residual = 0.000644562, No Iterations 3
time step continuity errors : sum local = 0.00148878, global = 6.86477e-05, cumulative = 0.0103538
smoothSolver:  Solving for omega, Initial residual = 0.00114935, Final residual = 9.35926e-05, No Iterations 5
smoothSolver:  Solving for k, Initial residual = 0.0163694, Final residual = 0.00129387, No Iterations 6
ExecutionTime = 0.74 s  ClockTime = 1 s

scalarTransport execute: age
smoothSolver:  Solving for age, Initial residual = 0.0120257, Final residual = 0.00112161, No Iterations 9

Time = 59

smoothSolver:  Solving for Ux, Initial residual = 0.0102175, Final residual = 0.000675838, No Iterations 6
smoothSolver:  Solving for Uy, Initial residual = 0.0075621, Final residual = 0.000579656, No Iterations 6
GAMG:  Solving for p, Initial residual = 0.00736228, Final residual = 0.000635065, No Iterations 3
time step continuity errors : sum local = 0.00145669, global = 6.81167e-05, cumulative = 0.0104219
smoothSolver:  Solving for omega, Initial residual = 0.00112388, Final residual = 9.04693e-05, No Iterations 5
smoothSolver:  Solving for k, Initial residual = 0.0159611, Final residual = 0.00125795, No Iterations 6
ExecutionTime = 0.76 s  ClockTime = 1 s

scalarTransport execute: age
smoothSolver:  Solving for age, Initial residual = 0.0116374, Final residual = 0.0010701, No Iterations 9

Time = 60

smoothSolver:  Solving for Ux, Initial residual = 0.00995103, Final residual = 0.000653348, No Iterations 6
smoothSolver:  Solving for Uy, Initial residual = 0.0073025, Final residual = 0.00055561, No Iterations 6
GAMG:  Solving for p, Initial residual = 0.00734987, Final residual = 0.000616299, No Iterations 3
time step continuity errors : sum local = 0.00140351, global = 6.77104e-05, cumulative = 0.0104896
smoothSolver:  Solving for omega, Initial residual = 0.00111639, Final residual = 8.77294e-05, No Iterations 5
smoothSolver:  Solving for k, Initial residual = 0.0155431, Final residual = 0.00122147, No Iterations 6
ExecutionTime = 0.77 s  ClockTime = 1 s

scalarTransport execute: age
smoothSolver:  Solving for age, Initial residual = 0.0110902, Final residual = 0.0010188, No Iterations 9

Time = 61

smoothSolver:  Solving for Ux, Initial residual = 0.00967441, Final residual = 0.000631347, No Iterations 6
smoothSolver:  Solving for Uy, Initial residual = 0.00702672, Final residual = 0.000530665, No Iterations 6
GAMG:  Solving for p, Initial residual = 0.00735695, Final residual = 0.000596202, No Iterations 3
time step continuity errors : sum local = 0.00134766, global = 6.63665e-05, cumulative = 0.010556
smoothSolver:  Solving for omega, Initial residual = 0.00109681, Final residual = 8.4795e-05, No Iterations 5
smoothSolver:  Solving for k, Initial residual = 0.015116, Final residual = 0.00118416, No Iterations 6
ExecutionTime = 0.78 s  ClockTime = 1 s

scalarTransport execute: age
smoothSolver:  Solving for age, Initial residual = 0.0105212, Final residual = 0.000968474, No Iterations 9

Time = 62

smoothSolver:  Solving for Ux, Initial residual = 0.00940423, Final residual = 0.000939838, No Iterations 5
smoothSolver:  Solving for Uy, Initial residual = 0.00673789, Final residual = 0.000504109, No Iterations 6
GAMG:  Solving for p, Initial residual = 0.00729721, Final residual = 0.000575553, No Iterations 3
time step continuity errors : sum local = 0.00129185, global = 6.44502e-05, cumulative = 0.0106204
smoothSolver:  Solving for omega, Initial residual = 0.00107296, Final residual = 8.17022e-05, No Iterations 5
smoothSolver:  Solving for k, Initial residual = 0.0146762, Final residual = 0.00114602, No Iterations 6
ExecutionTime = 0.79 s  ClockTime = 1 s

scalarTransport execute: age
smoothSolver:  Solving for age, Initial residual = 0.0100087, Final residual = 0.000921955, No Iterations 9

Time = 63

smoothSolver:  Solving for Ux, Initial residual = 0.00923173, Final residual = 0.000919274, No Iterations 5
smoothSolver:  Solving for Uy, Initial residual = 0.00641083, Final residual = 0.000474817, No Iterations 6
GAMG:  Solving for p, Initial residual = 0.00738107, Final residual = 0.000553526, No Iterations 3
time step continuity errors : sum local = 0.00123278, global = 6.26561e-05, cumulative = 0.0106831
smoothSolver:  Solving for omega, Initial residual = 0.00104913, Final residual = 7.87119e-05, No Iterations 5
smoothSolver:  Solving for k, Initial residual = 0.0142215, Final residual = 0.00110703, No Iterations 6
ExecutionTime = 0.8 s  ClockTime = 1 s

scalarTransport execute: age
smoothSolver:  Solving for age, Initial residual = 0.00958117, Final residual = 0.00087559, No Iterations 9

Time = 64

smoothSolver:  Solving for Ux, Initial residual = 0.00902171, Final residual = 0.000894479, No Iterations 5
smoothSolver:  Solving for Uy, Initial residual = 0.00609916, Final residual = 0.000446405, No Iterations 6
GAMG:  Solving for p, Initial residual = 0.00750873, Final residual = 0.000538845, No Iterations 3
time step continuity errors : sum local = 0.00119076, global = 6.14761e-05, cumulative = 0.0107446
smoothSolver:  Solving for omega, Initial residual = 0.00102472, Final residual = 7.58801e-05, No Iterations 5
smoothSolver:  Solving for k, Initial residual = 0.0137529, Final residual = 0.00106735, No Iterations 6
ExecutionTime = 0.82 s  ClockTime = 1 s

scalarTransport execute: age
smoothSolver:  Solving for age, Initial residual = 0.00921647, Final residual = 0.000833604, No Iterations 9

Time = 65

smoothSolver:  Solving for Ux, Initial residual = 0.0087953, Final residual = 0.000868313, No Iterations 5
smoothSolver:  Solving for Uy, Initial residual = 0.00579559, Final residual = 0.00041857, No Iterations 6
GAMG:  Solving for p, Initial residual = 0.00769955, Final residual = 0.000520318, No Iterations 3
time step continuity errors : sum local = 0.00114147, global = 6.07349e-05, cumulative = 0.0108053
smoothSolver:  Solving for omega, Initial residual = 0.000998872, Final residual = 7.32119e-05, No Iterations 5
smoothSolver:  Solving for k, Initial residual = 0.0132809, Final residual = 0.00102749, No Iterations 6
ExecutionTime = 0.83 s  ClockTime = 1 s

scalarTransport execute: age
smoothSolver:  Solving for age, Initial residual = 0.00889801, Final residual = 0.000801713, No Iterations 9

Time = 66

smoothSolver:  Solving for Ux, Initial residual = 0.00856964, Final residual = 0.000842686, No Iterations 5
smoothSolver:  Solving for Uy, Initial residual = 0.00550424, Final residual = 0.000391445, No Iterations 6
GAMG:  Solving for p, Initial residual = 0.00792943, Final residual = 0.00050308, No Iterations 3
time step continuity errors : sum local = 0.00109781, global = 6.02131e-05, cumulative = 0.0108655
smoothSolver:  Solving for omega, Initial residual = 0.000979924, Final residual = 7.05452e-05, No Iterations 5
smoothSolver:  Solving for k, Initial residual = 0.0128032, Final residual = 0.00098764, No Iterations 6
ExecutionTime = 0.84 s  ClockTime = 1 s

scalarTransport execute: age
smoothSolver:  Solving for age, Initial residual = 0.00861749, Final residual = 0.00078959, No Iterations 9

Time = 67

smoothSolver:  Solving for Ux, Initial residual = 0.00835114, Final residual = 0.000819076, No Iterations 5
smoothSolver:  Solving for Uy, Initial residual = 0.00522796, Final residual = 0.000365633, No Iterations 6
GAMG:  Solving for p, Initial residual = 0.00813043, Final residual = 0.00048753, No Iterations 3
time step continuity errors : sum local = 0.00105906, global = 5.96682e-05, cumulative = 0.0109252
smoothSolver:  Solving for omega, Initial residual = 0.000957771, Final residual = 6.80811e-05, No Iterations 5
smoothSolver:  Solving for k, Initial residual = 0.0123218, Final residual = 0.000948038, No Iterations 6
ExecutionTime = 0.85 s  ClockTime = 1 s

scalarTransport execute: age
smoothSolver:  Solving for age, Initial residual = 0.00841609, Final residual = 0.000795707, No Iterations 9

Time = 68

smoothSolver:  Solving for Ux, Initial residual = 0.00815937, Final residual = 0.000798065, No Iterations 5
smoothSolver:  Solving for Uy, Initial residual = 0.00497718, Final residual = 0.000341989, No Iterations 6
GAMG:  Solving for p, Initial residual = 0.00826151, Final residual = 0.00047904, No Iterations 3
time step continuity errors : sum local = 0.00103686, global = 5.92639e-05, cumulative = 0.0109844
smoothSolver:  Solving for omega, Initial residual = 0.000937413, Final residual = 6.57099e-05, No Iterations 5
smoothSolver:  Solving for k, Initial residual = 0.0118424, Final residual = 0.000908979, No Iterations 6
ExecutionTime = 0.86 s  ClockTime = 1 s

scalarTransport execute: age
smoothSolver:  Solving for age, Initial residual = 0.00827304, Final residual = 0.000817342, No Iterations 9

Time = 69

smoothSolver:  Solving for Ux, Initial residual = 0.00796943, Final residual = 0.000778933, No Iterations 5
smoothSolver:  Solving for Uy, Initial residual = 0.00475367, Final residual = 0.000322593, No Iterations 6
GAMG:  Solving for p, Initial residual = 0.00829231, Final residual = 0.00047499, No Iterations 3
time step continuity errors : sum local = 0.00102648, global = 5.85482e-05, cumulative = 0.011043
smoothSolver:  Solving for omega, Initial residual = 0.000919638, Final residual = 6.33477e-05, No Iterations 5
smoothSolver:  Solving for k, Initial residual = 0.0113698, Final residual = 0.00087082, No Iterations 6
ExecutionTime = 0.88 s  ClockTime = 1 s

scalarTransport execute: age
smoothSolver:  Solving for age, Initial residual = 0.00817023, Final residual = 0.00075083, No Iterations 10

Time = 70

smoothSolver:  Solving for Ux, Initial residual = 0.00779296, Final residual = 0.000761878, No Iterations 5
smoothSolver:  Solving for Uy, Initial residual = 0.004545, Final residual = 0.000307279, No Iterations 6
GAMG:  Solving for p, Initial residual = 0.00824695, Final residual = 0.000472212, No Iterations 3
time step continuity errors : sum local = 0.00102018, global = 5.79661e-05, cumulative = 0.011101
smoothSolver:  Solving for omega, Initial residual = 0.000901617, Final residual = 6.09302e-05, No Iterations 5
smoothSolver:  Solving for k, Initial residual = 0.0109109, Final residual = 0.000833916, No Iterations 6
ExecutionTime = 0.89 s  ClockTime = 1 s

scalarTransport execute: age
smoothSolver:  Solving for age, Initial residual = 0.00807334, Final residual = 0.000790411, No Iterations 10

Time = 71

smoothSolver:  Solving for Ux, Initial residual = 0.00763332, Final residual = 0.000746594, No Iterations 5
smoothSolver:  Solving for Uy, Initial residual = 0.00435774, Final residual = 0.000293358, No Iterations 6
GAMG:  Solving for p, Initial residual = 0.00814061, Final residual = 0.000465332, No Iterations 3
time step continuity errors : sum local = 0.00100564, global = 5.71784e-05, cumulative = 0.0111581
smoothSolver:  Solving for omega, Initial residual = 0.000881227, Final residual = 5.8431e-05, No Iterations 5
smoothSolver:  Solving for k, Initial residual = 0.0104693, Final residual = 0.000798583, No Iterations 6
ExecutionTime = 0.9 s  ClockTime = 1 s

scalarTransport execute: age
smoothSolver:  Solving for age, Initial residual = 0.00802666, Final residual = 0.000740246, No Iterations 11

Time = 72

smoothSolver:  Solving for Ux, Initial residual = 0.00746877, Final residual = 0.000732884, No Iterations 5
smoothSolver:  Solving for Uy, Initial residual = 0.00420342, Final residual = 0.000280291, No Iterations 6
GAMG:  Solving for p, Initial residual = 0.00805471, Final residual = 0.000452815, No Iterations 3
time step continuity errors : sum local = 0.000979156, global = 5.58701e-05, cumulative = 0.011214
smoothSolver:  Solving for omega, Initial residual = 0.000858989, Final residual = 5.58718e-05, No Iterations 5
smoothSolver:  Solving for k, Initial residual = 0.0100508, Final residual = 0.000764958, No Iterations 6
ExecutionTime = 0.91 s  ClockTime = 1 s

scalarTransport execute: age
smoothSolver:  Solving for age, Initial residual = 0.00804313, Final residual = 0.000784388, No Iterations 11

Time = 73

smoothSolver:  Solving for Ux, Initial residual = 0.0073104, Final residual = 0.000720764, No Iterations 5
smoothSolver:  Solving for Uy, Initial residual = 0.00406244, Final residual = 0.000268054, No Iterations 6
GAMG:  Solving for p, Initial residual = 0.0079731, Final residual = 0.000436631, No Iterations 3
time step continuity errors : sum local = 0.000944727, global = 5.41419e-05, cumulative = 0.0112681
smoothSolver:  Solving for omega, Initial residual = 0.000833321, Final residual = 5.32099e-05, No Iterations 5
smoothSolver:  Solving for k, Initial residual = 0.00966082, Final residual = 0.000733139, No Iterations 6
ExecutionTime = 0.92 s  ClockTime = 1 s

scalarTransport execute: age
smoothSolver:  Solving for age, Initial residual = 0.00808111, Final residual = 0.000732733, No Iterations 12

Time = 74

smoothSolver:  Solving for Ux, Initial residual = 0.00716107, Final residual = 0.000708802, No Iterations 5
smoothSolver:  Solving for Uy, Initial residual = 0.00392647, Final residual = 0.000256768, No Iterations 6
GAMG:  Solving for p, Initial residual = 0.00785326, Final residual = 0.00041791, No Iterations 3
time step continuity errors : sum local = 0.00090472, global = 5.1847e-05, cumulative = 0.01132
smoothSolver:  Solving for omega, Initial residual = 0.000807039, Final residual = 5.05581e-05, No Iterations 5
smoothSolver:  Solving for k, Initial residual = 0.00930181, Final residual = 0.000702993, No Iterations 6
ExecutionTime = 0.94 s  ClockTime = 1 s

scalarTransport execute: age
smoothSolver:  Solving for age, Initial residual = 0.00813306, Final residual = 0.000768987, No Iterations 12

Time = 75

smoothSolver:  Solving for Ux, Initial residual = 0.00701976, Final residual = 0.000697527, No Iterations 5
smoothSolver:  Solving for Uy, Initial residual = 0.00379592, Final residual = 0.000379191, No Iterations 5
GAMG:  Solving for p, Initial residual = 0.00768068, Final residual = 0.000406702, No Iterations 3
time step continuity errors : sum local = 0.000880582, global = 5.03628e-05, cumulative = 0.0113704
smoothSolver:  Solving for omega, Initial residual = 0.000778708, Final residual = 4.79141e-05, No Iterations 5
smoothSolver:  Solving for k, Initial residual = 0.00896593, Final residual = 0.000674287, No Iterations 6
ExecutionTime = 0.95 s  ClockTime = 1 s

scalarTransport execute: age
smoothSolver:  Solving for age, Initial residual = 0.00815606, Final residual = 0.000799759, No Iterations 12

Time = 76

smoothSolver:  Solving for Ux, Initial residual = 0.00684559, Final residual = 0.000683297, No Iterations 5
smoothSolver:  Solving for Uy, Initial residual = 0.00372943, Final residual = 0.000372385, No Iterations 5
GAMG:  Solving for p, Initial residual = 0.00754464, Final residual = 0.000754286, No Iterations 2
time step continuity errors : sum local = 0.00163357, global = 9.63001e-05, cumulative = 0.0114667
smoothSolver:  Solving for omega, Initial residual = 0.000756259, Final residual = 7.46981e-05, No Iterations 4
smoothSolver:  Solving for k, Initial residual = 0.00864575, Final residual = 0.000646736, No Iterations 6
ExecutionTime = 0.96 s  ClockTime = 1 s

scalarTransport execute: age
smoothSolver:  Solving for age, Initial residual = 0.00811095, Final residual = 0.000718369, No Iterations 13

Time = 77

smoothSolver:  Solving for Ux, Initial residual = 0.0066722, Final residual = 0.000435137, No Iterations 6
smoothSolver:  Solving for Uy, Initial residual = 0.00364993, Final residual = 0.000363867, No Iterations 5
GAMG:  Solving for p, Initial residual = 0.0076358, Final residual = 0.000519012, No Iterations 3
time step continuity errors : sum local = 0.0011272, global = 2.20216e-05, cumulative = 0.0114887
smoothSolver:  Solving for omega, Initial residual = 0.000744327, Final residual = 7.1253e-05, No Iterations 4
smoothSolver:  Solving for k, Initial residual = 0.00834144, Final residual = 0.000620655, No Iterations 6
ExecutionTime = 0.97 s  ClockTime = 1 s

scalarTransport execute: age
smoothSolver:  Solving for age, Initial residual = 0.00827647, Final residual = 0.00073778, No Iterations 13

Time = 78

smoothSolver:  Solving for Ux, Initial residual = 0.00656255, Final residual = 0.000651659, No Iterations 5
smoothSolver:  Solving for Uy, Initial residual = 0.00361936, Final residual = 0.000358996, No Iterations 5
GAMG:  Solving for p, Initial residual = 0.00728546, Final residual = 0.000718254, No Iterations 2
time step continuity errors : sum local = 0.00155366, global = 9.42256e-05, cumulative = 0.0115829
smoothSolver:  Solving for omega, Initial residual = 0.000721781, Final residual = 6.82091e-05, No Iterations 4
smoothSolver:  Solving for k, Initial residual = 0.00805052, Final residual = 0.000594745, No Iterations 6
ExecutionTime = 0.98 s  ClockTime = 1 s

scalarTransport execute: age
smoothSolver:  Solving for age, Initial residual = 0.0081502, Final residual = 0.000733823, No Iterations 13

Time = 79

smoothSolver:  Solving for Ux, Initial residual = 0.00637223, Final residual = 0.000415273, No Iterations 6
smoothSolver:  Solving for Uy, Initial residual = 0.00347573, Final residual = 0.000344481, No Iterations 5
GAMG:  Solving for p, Initial residual = 0.00710044, Final residual = 0.000472031, No Iterations 3
time step continuity errors : sum local = 0.00102628, global = 7.11592e-06, cumulative = 0.01159
smoothSolver:  Solving for omega, Initial residual = 0.000694758, Final residual = 6.54382e-05, No Iterations 4
smoothSolver:  Solving for k, Initial residual = 0.00775657, Final residual = 0.000570169, No Iterations 6
ExecutionTime = 1 s  ClockTime = 1 s

scalarTransport execute: age
smoothSolver:  Solving for age, Initial residual = 0.00819939, Final residual = 0.000724217, No Iterations 13

Time = 80

smoothSolver:  Solving for Ux, Initial residual = 0.0062278, Final residual = 0.000621943, No Iterations 5
smoothSolver:  Solving for Uy, Initial residual = 0.00348754, Final residual = 0.000342959, No Iterations 5
GAMG:  Solving for p, Initial residual = 0.00687934, Final residual = 0.000652047, No Iterations 2
time step continuity errors : sum local = 0.00140952, global = 8.59346e-05, cumulative = 0.011676
smoothSolver:  Solving for omega, Initial residual = 0.000679183, Final residual = 6.3182e-05, No Iterations 4
smoothSolver:  Solving for k, Initial residual = 0.00748686, Final residual = 0.000545711, No Iterations 6
ExecutionTime = 1.01 s  ClockTime = 1 s

scalarTransport execute: age
smoothSolver:  Solving for age, Initial residual = 0.00795465, Final residual = 0.000697892, No Iterations 13

Time = 81

smoothSolver:  Solving for Ux, Initial residual = 0.00604868, Final residual = 0.00039506, No Iterations 6
smoothSolver:  Solving for Uy, Initial residual = 0.00333202, Final residual = 0.000326775, No Iterations 5
GAMG:  Solving for p, Initial residual = 0.00680367, Final residual = 0.000439057, No Iterations 3
time step continuity errors : sum local = 0.000952585, global = 1.77849e-06, cumulative = 0.0116777
smoothSolver:  Solving for omega, Initial residual = 0.000662004, Final residual = 6.1195e-05, No Iterations 4
smoothSolver:  Solving for k, Initial residual = 0.00720706, Final residual = 0.000522527, No Iterations 6
ExecutionTime = 1.02 s  ClockTime = 1 s

scalarTransport execute: age
smoothSolver:  Solving for age, Initial residual = 0.00794035, Final residual = 0.000764344, No Iterations 12

Time = 82

smoothSolver:  Solving for Ux, Initial residual = 0.00586515, Final residual = 0.000582815, No Iterations 5
smoothSolver:  Solving for Uy, Initial residual = 0.00338771, Final residual = 0.000330673, No Iterations 5
GAMG:  Solving for p, Initial residual = 0.00674691, Final residual = 0.000601148, No Iterations 2
time step continuity errors : sum local = 0.00129759, global = 9.0355e-05, cumulative = 0.0117681
smoothSolver:  Solving for omega, Initial residual = 0.000653532, Final residual = 5.90037e-05, No Iterations 4
smoothSolver:  Solving for k, Initial residual = 0.00695648, Final residual = 0.000499475, No Iterations 6
ExecutionTime = 1.03 s  ClockTime = 1 s

scalarTransport execute: age
smoothSolver:  Solving for age, Initial residual = 0.00762102, Final residual = 0.000727592, No Iterations 12

Time = 83

smoothSolver:  Solving for Ux, Initial residual = 0.00566057, Final residual = 0.000565518, No Iterations 5
smoothSolver:  Solving for Uy, Initial residual = 0.00323533, Final residual = 0.000313927, No Iterations 5
GAMG:  Solving for p, Initial residual = 0.00662339, Final residual = 0.000414548, No Iterations 3
time step continuity errors : sum local = 0.000896352, global = -3.38263e-06, cumulative = 0.0117647
smoothSolver:  Solving for omega, Initial residual = 0.000639342, Final residual = 5.69693e-05, No Iterations 4
smoothSolver:  Solving for k, Initial residual = 0.00669196, Final residual = 0.000477809, No Iterations 6
ExecutionTime = 1.04 s  ClockTime = 1 s

scalarTransport execute: age
smoothSolver:  Solving for age, Initial residual = 0.00752223, Final residual = 0.000685224, No Iterations 12

Time = 84

smoothSolver:  Solving for Ux, Initial residual = 0.00549049, Final residual = 0.000541761, No Iterations 5
smoothSolver:  Solving for Uy, Initial residual = 0.00328747, Final residual = 0.000319, No Iterations 5
GAMG:  Solving for p, Initial residual = 0.00646762, Final residual = 0.000551092, No Iterations 2
time step continuity errors : sum local = 0.00118553, global = 9.06517e-05, cumulative = 0.0118554
smoothSolver:  Solving for omega, Initial residual = 0.000632554, Final residual = 5.48041e-05, No Iterations 4
smoothSolver:  Solving for k, Initial residual = 0.0064619, Final residual = 0.000455984, No Iterations 6
ExecutionTime = 1.06 s  ClockTime = 1 s

scalarTransport execute: age
smoothSolver:  Solving for age, Initial residual = 0.00717231, Final residual = 0.000636204, No Iterations 12

Time = 85

smoothSolver:  Solving for Ux, Initial residual = 0.0052473, Final residual = 0.000518978, No Iterations 5
smoothSolver:  Solving for Uy, Initial residual = 0.00316032, Final residual = 0.000304069, No Iterations 5
GAMG:  Solving for p, Initial residual = 0.00632707, Final residual = 0.000389481, No Iterations 3
time step continuity errors : sum local = 0.000838398, global = -3.64635e-06, cumulative = 0.0118517
smoothSolver:  Solving for omega, Initial residual = 0.000618628, Final residual = 5.26864e-05, No Iterations 4
smoothSolver:  Solving for k, Initial residual = 0.00620916, Final residual = 0.000435279, No Iterations 6
ExecutionTime = 1.07 s  ClockTime = 1 s

scalarTransport execute: age
smoothSolver:  Solving for age, Initial residual = 0.0070277, Final residual = 0.000683108, No Iterations 11

Time = 86

smoothSolver:  Solving for Ux, Initial residual = 0.00505928, Final residual = 0.000492606, No Iterations 5
smoothSolver:  Solving for Uy, Initial residual = 0.0032349, Final residual = 0.000312055, No Iterations 5
GAMG:  Solving for p, Initial residual = 0.00615722, Final residual = 0.000506589, No Iterations 2
time step continuity errors : sum local = 0.00108428, global = 9.21435e-05, cumulative = 0.0119439
smoothSolver:  Solving for omega, Initial residual = 0.000611856, Final residual = 5.03908e-05, No Iterations 4
smoothSolver:  Solving for k, Initial residual = 0.00599238, Final residual = 0.000414514, No Iterations 6
ExecutionTime = 1.08 s  ClockTime = 1 s

scalarTransport execute: age
smoothSolver:  Solving for age, Initial residual = 0.0066922, Final residual = 0.000639231, No Iterations 11

Time = 87

smoothSolver:  Solving for Ux, Initial residual = 0.00480088, Final residual = 0.000467434, No Iterations 5
smoothSolver:  Solving for Uy, Initial residual = 0.00311579, Final residual = 0.000296995, No Iterations 5
GAMG:  Solving for p, Initial residual = 0.0060145, Final residual = 0.000595001, No Iterations 2
time step continuity errors : sum local = 0.00127291, global = 0.000186141, cumulative = 0.01213
smoothSolver:  Solving for omega, Initial residual = 0.000589217, Final residual = 4.81619e-05, No Iterations 4
smoothSolver:  Solving for k, Initial residual = 0.00575635, Final residual = 0.000394521, No Iterations 6
ExecutionTime = 1.09 s  ClockTime = 1 s

scalarTransport execute: age
smoothSolver:  Solving for age, Initial residual = 0.006384, Final residual = 0.000593872, No Iterations 11

Time = 88

smoothSolver:  Solving for Ux, Initial residual = 0.00454459, Final residual = 0.000437342, No Iterations 5
smoothSolver:  Solving for Uy, Initial residual = 0.00311692, Final residual = 0.000293675, No Iterations 5
GAMG:  Solving for p, Initial residual = 0.0058455, Final residual = 0.000325069, No Iterations 3
time step continuity errors : sum local = 0.000694298, global = -1.32514e-06, cumulative = 0.0121287
smoothSolver:  Solving for omega, Initial residual = 0.000579289, Final residual = 4.56706e-05, No Iterations 4
smoothSolver:  Solving for k, Initial residual = 0.00552071, Final residual = 0.000375141, No Iterations 6
ExecutionTime = 1.1 s  ClockTime = 1 s

scalarTransport execute: age
smoothSolver:  Solving for age, Initial residual = 0.00628618, Final residual = 0.00056473, No Iterations 11

Time = 89

smoothSolver:  Solving for Ux, Initial residual = 0.00440803, Final residual = 0.000416812, No Iterations 5
smoothSolver:  Solving for Uy, Initial residual = 0.0031713, Final residual = 0.000303745, No Iterations 5
GAMG:  Solving for p, Initial residual = 0.00568887, Final residual = 0.000458888, No Iterations 2
time step continuity errors : sum local = 0.000970907, global = 8.48941e-05, cumulative = 0.0122136
smoothSolver:  Solving for omega, Initial residual = 0.000577764, Final residual = 4.357e-05, No Iterations 4
smoothSolver:  Solving for k, Initial residual = 0.00532969, Final residual = 0.000356104, No Iterations 6
ExecutionTime = 1.11 s  ClockTime = 1 s

scalarTransport execute: age
smoothSolver:  Solving for age, Initial residual = 0.00603292, Final residual = 0.000539101, No Iterations 11

Time = 90

smoothSolver:  Solving for Ux, Initial residual = 0.00409611, Final residual = 0.000389355, No Iterations 5
smoothSolver:  Solving for Uy, Initial residual = 0.00306684, Final residual = 0.000290686, No Iterations 5
GAMG:  Solving for p, Initial residual = 0.00547047, Final residual = 0.000522619, No Iterations 2
time step continuity errors : sum local = 0.00110428, global = 0.00017731, cumulative = 0.0123909
smoothSolver:  Solving for omega, Initial residual = 0.000545903, Final residual = 4.15015e-05, No Iterations 4
smoothSolver:  Solving for k, Initial residual = 0.00510663, Final residual = 0.000337781, No Iterations 6
ExecutionTime = 1.13 s  ClockTime = 1 s

scalarTransport execute: age
smoothSolver:  Solving for age, Initial residual = 0.00575837, Final residual = 0.000516038, No Iterations 11

Time = 91

smoothSolver:  Solving for Ux, Initial residual = 0.00384765, Final residual = 0.000360496, No Iterations 5
smoothSolver:  Solving for Uy, Initial residual = 0.00304054, Final residual = 0.00028364, No Iterations 5
GAMG:  Solving for p, Initial residual = 0.00529811, Final residual = 0.000310814, No Iterations 3
time step continuity errors : sum local = 0.000655484, global = -2.90994e-06, cumulative = 0.012388
smoothSolver:  Solving for omega, Initial residual = 0.000534602, Final residual = 3.9198e-05, No Iterations 4
smoothSolver:  Solving for k, Initial residual = 0.00487784, Final residual = 0.000320113, No Iterations 6
ExecutionTime = 1.14 s  ClockTime = 1 s

scalarTransport execute: age
smoothSolver:  Solving for age, Initial residual = 0.00560646, Final residual = 0.000498578, No Iterations 11

Time = 92

smoothSolver:  Solving for Ux, Initial residual = 0.00371241, Final residual = 0.000338733, No Iterations 5
smoothSolver:  Solving for Uy, Initial residual = 0.0030824, Final residual = 0.000289981, No Iterations 5
GAMG:  Solving for p, Initial residual = 0.00517002, Final residual = 0.000444008, No Iterations 2
time step continuity errors : sum local = 0.000927133, global = 7.61232e-05, cumulative = 0.0124641
smoothSolver:  Solving for omega, Initial residual = 0.000534665, Final residual = 3.7721e-05, No Iterations 4
smoothSolver:  Solving for k, Initial residual = 0.00469732, Final residual = 0.000303103, No Iterations 6
ExecutionTime = 1.15 s  ClockTime = 1 s

scalarTransport execute: age
smoothSolver:  Solving for age, Initial residual = 0.00538603, Final residual = 0.000486338, No Iterations 11

Time = 93

smoothSolver:  Solving for Ux, Initial residual = 0.00342717, Final residual = 0.00031369, No Iterations 5
smoothSolver:  Solving for Uy, Initial residual = 0.00297273, Final residual = 0.000277449, No Iterations 5
GAMG:  Solving for p, Initial residual = 0.00502518, Final residual = 0.000499313, No Iterations 2
time step continuity errors : sum local = 0.00104233, global = 0.000167945, cumulative = 0.012632
smoothSolver:  Solving for omega, Initial residual = 0.00050554, Final residual = 3.61944e-05, No Iterations 4
smoothSolver:  Solving for k, Initial residual = 0.0044816, Final residual = 0.000445482, No Iterations 5
ExecutionTime = 1.16 s  ClockTime = 1 s

scalarTransport execute: age
smoothSolver:  Solving for age, Initial residual = 0.00516356, Final residual = 0.000476103, No Iterations 11

Time = 94

smoothSolver:  Solving for Ux, Initial residual = 0.00320946, Final residual = 0.000287707, No Iterations 5
smoothSolver:  Solving for Uy, Initial residual = 0.00292675, Final residual = 0.000267556, No Iterations 5
GAMG:  Solving for p, Initial residual = 0.00489994, Final residual = 0.000317495, No Iterations 3
time step continuity errors : sum local = 0.000662016, global = -6.03728e-06, cumulative = 0.012626
smoothSolver:  Solving for omega, Initial residual = 0.000494947, Final residual = 3.43217e-05, No Iterations 4
smoothSolver:  Solving for k, Initial residual = 0.00426266, Final residual = 0.000422303, No Iterations 5
ExecutionTime = 1.17 s  ClockTime = 1 s

scalarTransport execute: age
smoothSolver:  Solving for age, Initial residual = 0.00501852, Final residual = 0.000468664, No Iterations 11

Time = 95

smoothSolver:  Solving for Ux, Initial residual = 0.00310214, Final residual = 0.000266303, No Iterations 5
smoothSolver:  Solving for Uy, Initial residual = 0.00293199, Final residual = 0.000268884, No Iterations 5
GAMG:  Solving for p, Initial residual = 0.00481029, Final residual = 0.000420767, No Iterations 2
time step continuity errors : sum local = 0.000868812, global = 6.11904e-05, cumulative = 0.0126872
smoothSolver:  Solving for omega, Initial residual = 0.000488957, Final residual = 3.3364e-05, No Iterations 4
smoothSolver:  Solving for k, Initial residual = 0.00409335, Final residual = 0.000400288, No Iterations 5
ExecutionTime = 1.18 s  ClockTime = 1 s

scalarTransport execute: age
smoothSolver:  Solving for age, Initial residual = 0.00482784, Final residual = 0.000463464, No Iterations 11

Time = 96

smoothSolver:  Solving for Ux, Initial residual = 0.00285931, Final residual = 0.00024533, No Iterations 5
[...]

Time = 598

smoothSolver:  Solving for Ux, Initial residual = 7.79791e-07, Final residual = 5.01795e-08, No Iterations 5
smoothSolver:  Solving for Uy, Initial residual = 5.52472e-07, Final residual = 4.62875e-08, No Iterations 5
GAMG:  Solving for p, Initial residual = 1.61256e-06, Final residual = 1.61088e-07, No Iterations 2
time step continuity errors : sum local = 3.80182e-07, global = 1.86008e-08, cumulative = 0.0166907
smoothSolver:  Solving for omega, Initial residual = 8.29313e-08, Final residual = 8.99512e-09, No Iterations 3
smoothSolver:  Solving for k, Initial residual = 1.22187e-07, Final residual = 8.31222e-09, No Iterations 5
ExecutionTime = 7.13 s  ClockTime = 7 s

scalarTransport execute: age
smoothSolver:  Solving for age, Initial residual = 0.000337916, Final residual = 3.27841e-05, No Iterations 14

Time = 599

smoothSolver:  Solving for Ux, Initial residual = 7.84937e-07, Final residual = 5.13769e-08, No Iterations 5
smoothSolver:  Solving for Uy, Initial residual = 5.35736e-07, Final residual = 4.4333e-08, No Iterations 5
GAMG:  Solving for p, Initial residual = 1.65393e-06, Final residual = 1.03386e-07, No Iterations 3
time step continuity errors : sum local = 2.43999e-07, global = 9.60504e-09, cumulative = 0.0166907
smoothSolver:  Solving for omega, Initial residual = 8.45013e-08, Final residual = 8.7325e-09, No Iterations 3
smoothSolver:  Solving for k, Initial residual = 1.18128e-07, Final residual = 8.09417e-09, No Iterations 5
ExecutionTime = 7.14 s  ClockTime = 7 s

scalarTransport execute: age
smoothSolver:  Solving for age, Initial residual = 0.000337305, Final residual = 3.27231e-05, No Iterations 14

Time = 600

smoothSolver:  Solving for Ux, Initial residual = 7.47769e-07, Final residual = 4.74117e-08, No Iterations 5
smoothSolver:  Solving for Uy, Initial residual = 5.19627e-07, Final residual = 4.3671e-08, No Iterations 5
GAMG:  Solving for p, Initial residual = 1.57007e-06, Final residual = 1.41996e-07, No Iterations 2
time step continuity errors : sum local = 3.35122e-07, global = 1.86927e-08, cumulative = 0.0166907
smoothSolver:  Solving for omega, Initial residual = 8.42755e-08, Final residual = 8.73014e-09, No Iterations 3
smoothSolver:  Solving for k, Initial residual = 1.17765e-07, Final residual = 7.9837e-09, No Iterations 5
ExecutionTime = 7.15 s  ClockTime = 7 s

scalarTransport execute: age
smoothSolver:  Solving for age, Initial residual = 0.000336712, Final residual = 3.26673e-05, No Iterations 14

Time = 601

smoothSolver:  Solving for Ux, Initial residual = 7.46309e-07, Final residual = 4.84465e-08, No Iterations 5
smoothSolver:  Solving for Uy, Initial residual = 5.13612e-07, Final residual = 4.2545e-08, No Iterations 5
GAMG:  Solving for p, Initial residual = 1.54914e-06, Final residual = 1.02998e-07, No Iterations 3
time step continuity errors : sum local = 2.43085e-07, global = 6.64971e-09, cumulative = 0.0166907
smoothSolver:  Solving for omega, Initial residual = 8.37522e-08, Final residual = 8.36172e-09, No Iterations 3
smoothSolver:  Solving for k, Initial residual = 1.13291e-07, Final residual = 7.77197e-09, No Iterations 5
ExecutionTime = 7.16 s  ClockTime = 7 s

scalarTransport execute: age
smoothSolver:  Solving for age, Initial residual = 0.000336118, Final residual = 3.26077e-05, No Iterations 14

Time = 602

smoothSolver:  Solving for Ux, Initial residual = 7.06577e-07, Final residual = 4.49076e-08, No Iterations 5
smoothSolver:  Solving for Uy, Initial residual = 5.10121e-07, Final residual = 4.27893e-08, No Iterations 5
GAMG:  Solving for p, Initial residual = 1.51158e-06, Final residual = 1.36773e-07, No Iterations 2
time step continuity errors : sum local = 3.22796e-07, global = 1.54708e-08, cumulative = 0.0166907
smoothSolver:  Solving for omega, Initial residual = 8.10559e-08, Final residual = 8.37104e-09, No Iterations 3
smoothSolver:  Solving for k, Initial residual = 1.13072e-07, Final residual = 7.66976e-09, No Iterations 5
ExecutionTime = 7.18 s  ClockTime = 7 s

scalarTransport execute: age
smoothSolver:  Solving for age, Initial residual = 0.00033553, Final residual = 3.25519e-05, No Iterations 14

Time = 603

smoothSolver:  Solving for Ux, Initial residual = 7.06627e-07, Final residual = 4.59072e-08, No Iterations 5
smoothSolver:  Solving for Uy, Initial residual = 5.00262e-07, Final residual = 4.1381e-08, No Iterations 5
GAMG:  Solving for p, Initial residual = 1.49428e-06, Final residual = 9.20526e-08, No Iterations 3
time step continuity errors : sum local = 2.17252e-07, global = 8.77803e-09, cumulative = 0.0166907
smoothSolver:  Solving for omega, Initial residual = 7.85244e-08, Final residual = 8.03225e-09, No Iterations 3
smoothSolver:  Solving for k, Initial residual = 1.08953e-07, Final residual = 7.47426e-09, No Iterations 5
ExecutionTime = 7.19 s  ClockTime = 7 s

scalarTransport execute: age
smoothSolver:  Solving for age, Initial residual = 0.000334933, Final residual = 3.24924e-05, No Iterations 14

Time = 604

smoothSolver:  Solving for Ux, Initial residual = 6.75716e-07, Final residual = 4.28108e-08, No Iterations 5
smoothSolver:  Solving for Uy, Initial residual = 4.89689e-07, Final residual = 4.12492e-08, No Iterations 5
GAMG:  Solving for p, Initial residual = 1.43326e-06, Final residual = 1.31815e-07, No Iterations 2
time step continuity errors : sum local = 3.11095e-07, global = 1.55364e-08, cumulative = 0.0166907
smoothSolver:  Solving for omega, Initial residual = 7.62708e-08, Final residual = 8.0264e-09, No Iterations 3
smoothSolver:  Solving for k, Initial residual = 1.08407e-07, Final residual = 7.37386e-09, No Iterations 5
ExecutionTime = 7.2 s  ClockTime = 7 s

scalarTransport execute: age
smoothSolver:  Solving for age, Initial residual = 0.00033435, Final residual = 3.2437e-05, No Iterations 14

Time = 605

smoothSolver:  Solving for Ux, Initial residual = 6.76487e-07, Final residual = 4.39178e-08, No Iterations 5
smoothSolver:  Solving for Uy, Initial residual = 4.77598e-07, Final residual = 3.96308e-08, No Iterations 5
GAMG:  Solving for p, Initial residual = 1.42503e-06, Final residual = 8.96341e-08, No Iterations 3
time step continuity errors : sum local = 2.11545e-07, global = 8.01237e-09, cumulative = 0.0166908
smoothSolver:  Solving for omega, Initial residual = 7.47681e-08, Final residual = 7.70862e-09, No Iterations 3
smoothSolver:  Solving for k, Initial residual = 1.04654e-07, Final residual = 7.18505e-09, No Iterations 5
ExecutionTime = 7.21 s  ClockTime = 7 s

scalarTransport execute: age
smoothSolver:  Solving for age, Initial residual = 0.000333758, Final residual = 3.23779e-05, No Iterations 14

Time = 606

smoothSolver:  Solving for Ux, Initial residual = 6.46463e-07, Final residual = 4.0928e-08, No Iterations 5
smoothSolver:  Solving for Uy, Initial residual = 4.65675e-07, Final residual = 3.92621e-08, No Iterations 5
GAMG:  Solving for p, Initial residual = 1.36861e-06, Final residual = 1.25365e-07, No Iterations 2
time step continuity errors : sum local = 2.95874e-07, global = 1.45115e-08, cumulative = 0.0166908
smoothSolver:  Solving for omega, Initial residual = 7.28139e-08, Final residual = 7.70236e-09, No Iterations 3
smoothSolver:  Solving for k, Initial residual = 1.04156e-07, Final residual = 7.08856e-09, No Iterations 5
ExecutionTime = 7.22 s  ClockTime = 7 s

scalarTransport execute: age
smoothSolver:  Solving for age, Initial residual = 0.000333178, Final residual = 3.23228e-05, No Iterations 14

Time = 607

smoothSolver:  Solving for Ux, Initial residual = 6.46058e-07, Final residual = 4.19403e-08, No Iterations 5
smoothSolver:  Solving for Uy, Initial residual = 4.5618e-07, Final residual = 3.79045e-08, No Iterations 5
GAMG:  Solving for p, Initial residual = 1.36068e-06, Final residual = 8.53664e-08, No Iterations 3
time step continuity errors : sum local = 2.01473e-07, global = 7.50491e-09, cumulative = 0.0166908
smoothSolver:  Solving for omega, Initial residual = 7.15082e-08, Final residual = 7.40433e-09, No Iterations 3
smoothSolver:  Solving for k, Initial residual = 1.00674e-07, Final residual = 6.90714e-09, No Iterations 5
ExecutionTime = 7.23 s  ClockTime = 7 s

scalarTransport execute: age
smoothSolver:  Solving for age, Initial residual = 0.00033259, Final residual = 3.22642e-05, No Iterations 14

Time = 608

smoothSolver:  Solving for Ux, Initial residual = 6.17362e-07, Final residual = 3.91277e-08, No Iterations 5
smoothSolver:  Solving for Uy, Initial residual = 4.46651e-07, Final residual = 3.7699e-08, No Iterations 5
GAMG:  Solving for p, Initial residual = 1.30893e-06, Final residual = 1.19506e-07, No Iterations 2
time step continuity errors : sum local = 2.82045e-07, global = 1.37214e-08, cumulative = 0.0166908
smoothSolver:  Solving for omega, Initial residual = 6.97569e-08, Final residual = 7.40274e-09, No Iterations 3
smoothSolver:  Solving for k, Initial residual = 1.00171e-07, Final residual = 6.81403e-09, No Iterations 5
ExecutionTime = 7.24 s  ClockTime = 7 s

scalarTransport execute: age
smoothSolver:  Solving for age, Initial residual = 0.000332013, Final residual = 3.22095e-05, No Iterations 14

Time = 609

smoothSolver:  Solving for Ux, Initial residual = 6.17562e-07, Final residual = 4.01172e-08, No Iterations 5
smoothSolver:  Solving for Uy, Initial residual = 4.36907e-07, Final residual = 3.63242e-08, No Iterations 5
GAMG:  Solving for p, Initial residual = 1.30214e-06, Final residual = 8.16807e-08, No Iterations 3
time step continuity errors : sum local = 1.92775e-07, global = 7.18361e-09, cumulative = 0.0166908
smoothSolver:  Solving for omega, Initial residual = 6.8487e-08, Final residual = 7.11464e-09, No Iterations 3
smoothSolver:  Solving for k, Initial residual = 9.68041e-08, Final residual = 6.63903e-09, No Iterations 5
ExecutionTime = 7.26 s  ClockTime = 7 s

scalarTransport execute: age
smoothSolver:  Solving for age, Initial residual = 0.000331429, Final residual = 3.21515e-05, No Iterations 14

Time = 610

smoothSolver:  Solving for Ux, Initial residual = 5.9038e-07, Final residual = 3.74265e-08, No Iterations 5
smoothSolver:  Solving for Uy, Initial residual = 4.27426e-07, Final residual = 3.60905e-08, No Iterations 5
GAMG:  Solving for p, Initial residual = 1.25459e-06, Final residual = 1.14348e-07, No Iterations 2
time step continuity errors : sum local = 2.69873e-07, global = 1.30816e-08, cumulative = 0.0166908
smoothSolver:  Solving for omega, Initial residual = 6.68376e-08, Final residual = 7.11676e-09, No Iterations 3
smoothSolver:  Solving for k, Initial residual = 9.62914e-08, Final residual = 6.54929e-09, No Iterations 5
ExecutionTime = 7.27 s  ClockTime = 7 s

scalarTransport execute: age
smoothSolver:  Solving for age, Initial residual = 0.000330856, Final residual = 3.2097e-05, No Iterations 14

Time = 611

smoothSolver:  Solving for Ux, Initial residual = 5.90578e-07, Final residual = 3.83782e-08, No Iterations 5
smoothSolver:  Solving for Uy, Initial residual = 4.17597e-07, Final residual = 3.47343e-08, No Iterations 5
GAMG:  Solving for p, Initial residual = 1.24685e-06, Final residual = 7.84905e-08, No Iterations 3
time step continuity errors : sum local = 1.85246e-07, global = 6.80347e-09, cumulative = 0.0166908
smoothSolver:  Solving for omega, Initial residual = 6.56424e-08, Final residual = 6.83626e-09, No Iterations 3
smoothSolver:  Solving for k, Initial residual = 9.30503e-08, Final residual = 6.3807e-09, No Iterations 5
ExecutionTime = 7.28 s  ClockTime = 7 s

scalarTransport execute: age
smoothSolver:  Solving for age, Initial residual = 0.000330277, Final residual = 3.20396e-05, No Iterations 14

Time = 612

smoothSolver:  Solving for Ux, Initial residual = 5.64288e-07, Final residual = 3.57744e-08, No Iterations 5
smoothSolver:  Solving for Uy, Initial residual = 4.08475e-07, Final residual = 3.45241e-08, No Iterations 5
GAMG:  Solving for p, Initial residual = 1.20238e-06, Final residual = 1.09293e-07, No Iterations 2
time step continuity errors : sum local = 2.57942e-07, global = 1.24139e-08, cumulative = 0.0166908
smoothSolver:  Solving for omega, Initial residual = 6.40748e-08, Final residual = 6.84131e-09, No Iterations 3
smoothSolver:  Solving for k, Initial residual = 9.25448e-08, Final residual = 6.29493e-09, No Iterations 5
ExecutionTime = 7.29 s  ClockTime = 7 s

scalarTransport execute: age
smoothSolver:  Solving for age, Initial residual = 0.000329707, Final residual = 3.19854e-05, No Iterations 14

Time = 613

smoothSolver:  Solving for Ux, Initial residual = 5.64359e-07, Final residual = 3.66846e-08, No Iterations 5
smoothSolver:  Solving for Uy, Initial residual = 3.99032e-07, Final residual = 3.32118e-08, No Iterations 5
GAMG:  Solving for p, Initial residual = 1.19313e-06, Final residual = 7.51979e-08, No Iterations 3
time step continuity errors : sum local = 1.77475e-07, global = 6.48433e-09, cumulative = 0.0166908
smoothSolver:  Solving for omega, Initial residual = 6.29212e-08, Final residual = 6.56702e-09, No Iterations 3
smoothSolver:  Solving for k, Initial residual = 8.94335e-08, Final residual = 6.13291e-09, No Iterations 5
ExecutionTime = 7.3 s  ClockTime = 7 s

scalarTransport execute: age
smoothSolver:  Solving for age, Initial residual = 0.000329133, Final residual = 3.19284e-05, No Iterations 14

Time = 614

smoothSolver:  Solving for Ux, Initial residual = 5.38974e-07, Final residual = 3.4172e-08, No Iterations 5
smoothSolver:  Solving for Uy, Initial residual = 3.90375e-07, Final residual = 3.30369e-08, No Iterations 5
GAMG:  Solving for p, Initial residual = 1.15092e-06, Final residual = 1.04391e-07, No Iterations 2
time step continuity errors : sum local = 2.46374e-07, global = 1.17784e-08, cumulative = 0.0166908
smoothSolver:  Solving for omega, Initial residual = 6.13902e-08, Final residual = 6.57255e-09, No Iterations 3
smoothSolver:  Solving for k, Initial residual = 8.89381e-08, Final residual = 9.97386e-09, No Iterations 4
ExecutionTime = 7.31 s  ClockTime = 7 s

scalarTransport execute: age
smoothSolver:  Solving for age, Initial residual = 0.000328566, Final residual = 3.18745e-05, No Iterations 14

Time = 615

smoothSolver:  Solving for Ux, Initial residual = 5.39391e-07, Final residual = 3.50832e-08, No Iterations 5
smoothSolver:  Solving for Uy, Initial residual = 3.81157e-07, Final residual = 3.17439e-08, No Iterations 5
GAMG:  Solving for p, Initial residual = 1.14061e-06, Final residual = 7.1939e-08, No Iterations 3
time step continuity errors : sum local = 1.69784e-07, global = 6.20325e-09, cumulative = 0.0166909
smoothSolver:  Solving for omega, Initial residual = 6.0147e-08, Final residual = 6.29103e-09, No Iterations 3
smoothSolver:  Solving for k, Initial residual = 8.62364e-08, Final residual = 9.75057e-09, No Iterations 4
ExecutionTime = 7.32 s  ClockTime = 7 s

scalarTransport execute: age
smoothSolver:  Solving for age, Initial residual = 0.000327995, Final residual = 3.18179e-05, No Iterations 14

Time = 616

smoothSolver:  Solving for Ux, Initial residual = 5.15226e-07, Final residual = 3.26879e-08, No Iterations 5
smoothSolver:  Solving for Uy, Initial residual = 3.728e-07, Final residual = 3.15842e-08, No Iterations 5
GAMG:  Solving for p, Initial residual = 1.10057e-06, Final residual = 9.97324e-08, No Iterations 2
time step continuity errors : sum local = 2.35379e-07, global = 1.11787e-08, cumulative = 0.0166909
smoothSolver:  Solving for omega, Initial residual = 5.85882e-08, Final residual = 6.28894e-09, No Iterations 3
smoothSolver:  Solving for k, Initial residual = 8.59988e-08, Final residual = 9.65515e-09, No Iterations 4
ExecutionTime = 7.33 s  ClockTime = 7 s

scalarTransport execute: age
smoothSolver:  Solving for age, Initial residual = 0.000327432, Final residual = 3.17642e-05, No Iterations 14

Time = 617

smoothSolver:  Solving for Ux, Initial residual = 5.15576e-07, Final residual = 3.35609e-08, No Iterations 5
smoothSolver:  Solving for Uy, Initial residual = 3.64297e-07, Final residual = 3.03729e-08, No Iterations 5
GAMG:  Solving for p, Initial residual = 1.09063e-06, Final residual = 6.88727e-08, No Iterations 3
time step continuity errors : sum local = 1.62547e-07, global = 5.92859e-09, cumulative = 0.0166909
smoothSolver:  Solving for omega, Initial residual = 5.75165e-08, Final residual = 6.02524e-09, No Iterations 3
smoothSolver:  Solving for k, Initial residual = 8.33742e-08, Final residual = 9.43251e-09, No Iterations 4
ExecutionTime = 7.35 s  ClockTime = 7 s

scalarTransport execute: age
smoothSolver:  Solving for age, Initial residual = 0.000326865, Final residual = 3.17079e-05, No Iterations 14

Time = 618

smoothSolver:  Solving for Ux, Initial residual = 4.92323e-07, Final residual = 3.12456e-08, No Iterations 5
smoothSolver:  Solving for Uy, Initial residual = 3.56424e-07, Final residual = 3.024e-08, No Iterations 5
GAMG:  Solving for p, Initial residual = 1.05339e-06, Final residual = 9.53453e-08, No Iterations 2
time step continuity errors : sum local = 2.25025e-07, global = 1.06055e-08, cumulative = 0.0166909
smoothSolver:  Solving for omega, Initial residual = 5.60518e-08, Final residual = 6.02801e-09, No Iterations 3
smoothSolver:  Solving for k, Initial residual = 8.30925e-08, Final residual = 9.33269e-09, No Iterations 4
ExecutionTime = 7.36 s  ClockTime = 7 s

scalarTransport execute: age
smoothSolver:  Solving for age, Initial residual = 0.000326304, Final residual = 3.16544e-05, No Iterations 14

Time = 619

smoothSolver:  Solving for Ux, Initial residual = 4.92678e-07, Final residual = 3.20898e-08, No Iterations 5
smoothSolver:  Solving for Uy, Initial residual = 3.48473e-07, Final residual = 2.90898e-08, No Iterations 5
GAMG:  Solving for p, Initial residual = 1.04333e-06, Final residual = 6.59168e-08, No Iterations 3
time step continuity errors : sum local = 1.55571e-07, global = 5.68193e-09, cumulative = 0.0166909
smoothSolver:  Solving for omega, Initial residual = 5.50487e-08, Final residual = 5.77536e-09, No Iterations 3
smoothSolver:  Solving for k, Initial residual = 8.05414e-08, Final residual = 9.11131e-09, No Iterations 4
ExecutionTime = 7.37 s  ClockTime = 7 s

scalarTransport execute: age
smoothSolver:  Solving for age, Initial residual = 0.000325741, Final residual = 3.15986e-05, No Iterations 14

Time = 620

smoothSolver:  Solving for Ux, Initial residual = 4.70389e-07, Final residual = 2.98569e-08, No Iterations 5
smoothSolver:  Solving for Uy, Initial residual = 3.40893e-07, Final residual = 2.89643e-08, No Iterations 5
GAMG:  Solving for p, Initial residual = 1.00823e-06, Final residual = 9.12137e-08, No Iterations 2
time step continuity errors : sum local = 2.15275e-07, global = 1.00573e-08, cumulative = 0.0166909
smoothSolver:  Solving for omega, Initial residual = 5.36484e-08, Final residual = 5.78038e-09, No Iterations 3
smoothSolver:  Solving for k, Initial residual = 8.02148e-08, Final residual = 9.00859e-09, No Iterations 4
ExecutionTime = 7.38 s  ClockTime = 7 s

scalarTransport execute: age
smoothSolver:  Solving for age, Initial residual = 0.000325184, Final residual = 3.15454e-05, No Iterations 14

Time = 621

smoothSolver:  Solving for Ux, Initial residual = 4.7073e-07, Final residual = 3.06757e-08, No Iterations 5
smoothSolver:  Solving for Uy, Initial residual = 3.33431e-07, Final residual = 2.78728e-08, No Iterations 5
GAMG:  Solving for p, Initial residual = 9.98228e-07, Final residual = 6.308e-08, No Iterations 3
time step continuity errors : sum local = 1.48876e-07, global = 5.44786e-09, cumulative = 0.0166909
smoothSolver:  Solving for omega, Initial residual = 5.27003e-08, Final residual = 5.53785e-09, No Iterations 3
smoothSolver:  Solving for k, Initial residual = 7.77413e-08, Final residual = 8.79045e-09, No Iterations 4
ExecutionTime = 7.39 s  ClockTime = 7 s


SIMPLE solution converged in 621 iterations

scalarTransport execute: age
smoothSolver:  Solving for age, Initial residual = 0.000324624, Final residual = 3.14898e-05, No Iterations 14

End

