/*---------------------------------------------------------------------------*\
| =========                 |                                                 |
| \\      /  F ield         | OpenFOAM: The Open Source CFD Toolbox           |
|  \\    /   O peration     | Version:  v2012                                 |
|   \\  /    A nd           | Website:  www.openfoam.com                      |
|    \\/     M anipulation  |                                                 |
\*---------------------------------------------------------------------------*/
Build  : _7bdb509494-20201222 OPENFOAM=2012
Arch   : "LSB;label=32;scalar=64"
Exec   : simpleFoam
Date   : Feb 23 2023
Time   : 14:04:49
Host   : johnsDesktop
PID    : 4652
I/O    : uncollated
Case   : /home/john/of_runs/cases/dbl_0_17_2-00740_9
nProcs : 1
trapFpe: Floating point exception trapping enabled (FOAM_SIGFPE).
fileModificationChecking : Monitoring run-time modified files using timeStampMaster (fileModificationSkew 5, maxFileModificationPolls 20)
allowSystemOperations : Allowing user-supplied system call operations

// * * * * * * * * * * * * * * * * * * * * * * * * * * * * * * * * * * * * * //
Create time

Create mesh for time = 0


SIMPLE: convergence criteria
    field p	 tolerance 1e-06
    field U	 tolerance 1e-06
    field "(k|epsilon|omega|f|v2|age)"	 tolerance 1e-05

Reading field p

Reading field U

Reading/calculating face flux field phi

Selecting incompressible transport model Newtonian
Selecting turbulence model type RAS
Selecting RAS turbulence model kOmegaSST
Selecting patchDistMethod meshWave
RAS
{
    RASModel        kOmegaSST;
    turbulence      on;
    printCoeffs     on;
    alphaK1         0.85;
    alphaK2         1;
    alphaOmega1     0.5;
    alphaOmega2     0.856;
    gamma1          0.555556;
    gamma2          0.44;
    beta1           0.075;
    beta2           0.0828;
    betaStar        0.09;
    a1              0.31;
    b1              1;
    c1              10;
    F3              false;
    decayControl    false;
    kInf            0;
    omegaInf        0;
}

No MRF models present

No finite volume options present

Starting time loop

Selecting finite volume options type scalarSemiImplicitSource
    Source: unitySource
    - selecting all cells
    - selected 6598 cell(s) with volume 0.03183
Time = 1

smoothSolver:  Solving for Ux, Initial residual = 0, Final residual = 0, No Iterations 0
smoothSolver:  Solving for Uy, Initial residual = 1, Final residual = 0.0686218, No Iterations 2
GAMG:  Solving for p, Initial residual = 1, Final residual = 0.0899828, No Iterations 6
time step continuity errors : sum local = 0.00565396, global = -0.000889086, cumulative = -0.000889086
smoothSolver:  Solving for omega, Initial residual = 0.27706, Final residual = 0.0135009, No Iterations 3
smoothSolver:  Solving for k, Initial residual = 1, Final residual = 0.0834622, No Iterations 3
ExecutionTime = 0.05 s  ClockTime = 0 s

scalarTransport execute: age
smoothSolver:  Solving for age, Initial residual = 1, Final residual = 0.0908097, No Iterations 5

Time = 2

smoothSolver:  Solving for Ux, Initial residual = 0.598401, Final residual = 0.050672, No Iterations 6
smoothSolver:  Solving for Uy, Initial residual = 0.279244, Final residual = 0.0275661, No Iterations 5
GAMG:  Solving for p, Initial residual = 0.0487054, Final residual = 0.00185844, No Iterations 4
time step continuity errors : sum local = 0.0214146, global = 0.00182511, cumulative = 0.00093602
smoothSolver:  Solving for omega, Initial residual = 0.265775, Final residual = 0.0263831, No Iterations 3
smoothSolver:  Solving for k, Initial residual = 0.620929, Final residual = 0.0580027, No Iterations 4
ExecutionTime = 0.06 s  ClockTime = 0 s

scalarTransport execute: age
smoothSolver:  Solving for age, Initial residual = 0.587221, Final residual = 0.0528968, No Iterations 7

Time = 3

smoothSolver:  Solving for Ux, Initial residual = 0.22816, Final residual = 0.0221337, No Iterations 5
smoothSolver:  Solving for Uy, Initial residual = 0.100949, Final residual = 0.0085032, No Iterations 5
GAMG:  Solving for p, Initial residual = 0.0555624, Final residual = 0.00453677, No Iterations 3
time step continuity errors : sum local = 0.0213806, global = 0.0020757, cumulative = 0.00301172
smoothSolver:  Solving for omega, Initial residual = 0.267219, Final residual = 0.0257143, No Iterations 4
smoothSolver:  Solving for k, Initial residual = 0.524431, Final residual = 0.0390072, No Iterations 5
ExecutionTime = 0.08 s  ClockTime = 0 s

scalarTransport execute: age
smoothSolver:  Solving for age, Initial residual = 0.36684, Final residual = 0.0352122, No Iterations 8

Time = 4

smoothSolver:  Solving for Ux, Initial residual = 0.113849, Final residual = 0.00981418, No Iterations 4
smoothSolver:  Solving for Uy, Initial residual = 0.0486056, Final residual = 0.00334639, No Iterations 5
GAMG:  Solving for p, Initial residual = 0.0746107, Final residual = 0.00382045, No Iterations 3
time step continuity errors : sum local = 0.010826, global = 0.000512984, cumulative = 0.0035247
smoothSolver:  Solving for omega, Initial residual = 0.156201, Final residual = 0.0108111, No Iterations 5
smoothSolver:  Solving for k, Initial residual = 0.453863, Final residual = 0.0380733, No Iterations 5
ExecutionTime = 0.09 s  ClockTime = 0 s

scalarTransport execute: age
smoothSolver:  Solving for age, Initial residual = 0.26161, Final residual = 0.0245665, No Iterations 8

Time = 5

smoothSolver:  Solving for Ux, Initial residual = 0.072972, Final residual = 0.00585296, No Iterations 5
smoothSolver:  Solving for Uy, Initial residual = 0.0314844, Final residual = 0.00206089, No Iterations 5
GAMG:  Solving for p, Initial residual = 0.0727071, Final residual = 0.00308254, No Iterations 2
time step continuity errors : sum local = 0.00744544, global = 0.000342837, cumulative = 0.00386754
smoothSolver:  Solving for omega, Initial residual = 0.107349, Final residual = 0.00818368, No Iterations 5
smoothSolver:  Solving for k, Initial residual = 0.367091, Final residual = 0.0332872, No Iterations 5
ExecutionTime = 0.1 s  ClockTime = 0 s

scalarTransport execute: age
smoothSolver:  Solving for age, Initial residual = 0.198607, Final residual = 0.019212, No Iterations 9

Time = 6

smoothSolver:  Solving for Ux, Initial residual = 0.05465, Final residual = 0.00362803, No Iterations 6
smoothSolver:  Solving for Uy, Initial residual = 0.0254044, Final residual = 0.00185186, No Iterations 5
GAMG:  Solving for p, Initial residual = 0.0577194, Final residual = 0.00331818, No Iterations 2
time step continuity errors : sum local = 0.0085131, global = 0.000164798, cumulative = 0.00403234
smoothSolver:  Solving for omega, Initial residual = 0.0839969, Final residual = 0.00683276, No Iterations 5
smoothSolver:  Solving for k, Initial residual = 0.292465, Final residual = 0.0281262, No Iterations 5
ExecutionTime = 0.11 s  ClockTime = 1 s

scalarTransport execute: age
smoothSolver:  Solving for age, Initial residual = 0.172012, Final residual = 0.015612, No Iterations 10

Time = 7

smoothSolver:  Solving for Ux, Initial residual = 0.0471024, Final residual = 0.00317405, No Iterations 6
smoothSolver:  Solving for Uy, Initial residual = 0.0222327, Final residual = 0.00172519, No Iterations 5
GAMG:  Solving for p, Initial residual = 0.0480504, Final residual = 0.00384551, No Iterations 2
time step continuity errors : sum local = 0.0100152, global = -0.000393061, cumulative = 0.00363928
smoothSolver:  Solving for omega, Initial residual = 0.0648006, Final residual = 0.00562043, No Iterations 5
smoothSolver:  Solving for k, Initial residual = 0.24128, Final residual = 0.015321, No Iterations 6
ExecutionTime = 0.13 s  ClockTime = 1 s

scalarTransport execute: age
smoothSolver:  Solving for age, Initial residual = 0.140189, Final residual = 0.0124649, No Iterations 11

Time = 8

smoothSolver:  Solving for Ux, Initial residual = 0.0391221, Final residual = 0.00372636, No Iterations 5
smoothSolver:  Solving for Uy, Initial residual = 0.020285, Final residual = 0.00166824, No Iterations 5
GAMG:  Solving for p, Initial residual = 0.0399232, Final residual = 0.00303791, No Iterations 2
time step continuity errors : sum local = 0.00833073, global = -0.000680406, cumulative = 0.00295887
smoothSolver:  Solving for omega, Initial residual = 0.0520683, Final residual = 0.0046856, No Iterations 5
smoothSolver:  Solving for k, Initial residual = 0.205004, Final residual = 0.0135002, No Iterations 6
ExecutionTime = 0.14 s  ClockTime = 1 s

scalarTransport execute: age
smoothSolver:  Solving for age, Initial residual = 0.121414, Final residual = 0.0112727, No Iterations 11

Time = 9

smoothSolver:  Solving for Ux, Initial residual = 0.03518, Final residual = 0.00332724, No Iterations 5
smoothSolver:  Solving for Uy, Initial residual = 0.0189498, Final residual = 0.00159283, No Iterations 5
GAMG:  Solving for p, Initial residual = 0.0338334, Final residual = 0.00196547, No Iterations 2
time step continuity errors : sum local = 0.00562327, global = -0.000574713, cumulative = 0.00238416
smoothSolver:  Solving for omega, Initial residual = 0.0429768, Final residual = 0.00398133, No Iterations 5
smoothSolver:  Solving for k, Initial residual = 0.177569, Final residual = 0.0120527, No Iterations 6
ExecutionTime = 0.15 s  ClockTime = 1 s

scalarTransport execute: age
smoothSolver:  Solving for age, Initial residual = 0.107325, Final residual = 0.0103714, No Iterations 11

Time = 10

smoothSolver:  Solving for Ux, Initial residual = 0.0338811, Final residual = 0.00333802, No Iterations 5
smoothSolver:  Solving for Uy, Initial residual = 0.0181478, Final residual = 0.00154784, No Iterations 5
GAMG:  Solving for p, Initial residual = 0.029099, Final residual = 0.000817283, No Iterations 2
time step continuity errors : sum local = 0.00239303, global = -0.000516118, cumulative = 0.00186804
smoothSolver:  Solving for omega, Initial residual = 0.0358696, Final residual = 0.00341644, No Iterations 5
smoothSolver:  Solving for k, Initial residual = 0.156146, Final residual = 0.0108657, No Iterations 6
ExecutionTime = 0.16 s  ClockTime = 1 s

scalarTransport execute: age
smoothSolver:  Solving for age, Initial residual = 0.0949335, Final residual = 0.00928838, No Iterations 11

Time = 11

smoothSolver:  Solving for Ux, Initial residual = 0.0310361, Final residual = 0.00205248, No Iterations 6
smoothSolver:  Solving for Uy, Initial residual = 0.0174205, Final residual = 0.00155364, No Iterations 5
GAMG:  Solving for p, Initial residual = 0.026038, Final residual = 0.000861898, No Iterations 2
time step continuity errors : sum local = 0.00252826, global = -0.000415048, cumulative = 0.00145299
smoothSolver:  Solving for omega, Initial residual = 0.0303077, Final residual = 0.00294916, No Iterations 5
smoothSolver:  Solving for k, Initial residual = 0.13894, Final residual = 0.00986613, No Iterations 6
ExecutionTime = 0.18 s  ClockTime = 1 s

scalarTransport execute: age
smoothSolver:  Solving for age, Initial residual = 0.0831567, Final residual = 0.00710657, No Iterations 12

Time = 12

smoothSolver:  Solving for Ux, Initial residual = 0.0289496, Final residual = 0.00194393, No Iterations 6
smoothSolver:  Solving for Uy, Initial residual = 0.0169632, Final residual = 0.00156381, No Iterations 5
GAMG:  Solving for p, Initial residual = 0.0240287, Final residual = 0.000878599, No Iterations 2
time step continuity errors : sum local = 0.00256948, global = -0.000286045, cumulative = 0.00116695
smoothSolver:  Solving for omega, Initial residual = 0.0259418, Final residual = 0.00256713, No Iterations 5
smoothSolver:  Solving for k, Initial residual = 0.12493, Final residual = 0.0090224, No Iterations 6
ExecutionTime = 0.19 s  ClockTime = 1 s

scalarTransport execute: age
smoothSolver:  Solving for age, Initial residual = 0.0722777, Final residual = 0.00627478, No Iterations 12

Time = 13

smoothSolver:  Solving for Ux, Initial residual = 0.0275132, Final residual = 0.00186414, No Iterations 6
smoothSolver:  Solving for Uy, Initial residual = 0.0166056, Final residual = 0.00157053, No Iterations 5
GAMG:  Solving for p, Initial residual = 0.0224851, Final residual = 0.000849886, No Iterations 2
time step continuity errors : sum local = 0.00247304, global = -0.00013204, cumulative = 0.00103491
smoothSolver:  Solving for omega, Initial residual = 0.0224412, Final residual = 0.00143734, No Iterations 6
smoothSolver:  Solving for k, Initial residual = 0.112974, Final residual = 0.00827967, No Iterations 6
ExecutionTime = 0.2 s  ClockTime = 1 s

scalarTransport execute: age
smoothSolver:  Solving for age, Initial residual = 0.0630613, Final residual = 0.0055632, No Iterations 12

Time = 14

smoothSolver:  Solving for Ux, Initial residual = 0.0263431, Final residual = 0.00179416, No Iterations 6
smoothSolver:  Solving for Uy, Initial residual = 0.0162543, Final residual = 0.00156573, No Iterations 5
GAMG:  Solving for p, Initial residual = 0.021411, Final residual = 0.00081759, No Iterations 2
time step continuity errors : sum local = 0.00236484, global = 1.81936e-05, cumulative = 0.0010531
smoothSolver:  Solving for omega, Initial residual = 0.0194039, Final residual = 0.00126237, No Iterations 6
smoothSolver:  Solving for k, Initial residual = 0.102763, Final residual = 0.00762999, No Iterations 6
ExecutionTime = 0.21 s  ClockTime = 1 s

scalarTransport execute: age
smoothSolver:  Solving for age, Initial residual = 0.0548117, Final residual = 0.00494603, No Iterations 12

Time = 15

smoothSolver:  Solving for Ux, Initial residual = 0.0253823, Final residual = 0.00173256, No Iterations 6
smoothSolver:  Solving for Uy, Initial residual = 0.015962, Final residual = 0.00155205, No Iterations 5
GAMG:  Solving for p, Initial residual = 0.0204879, Final residual = 0.000794557, No Iterations 2
time step continuity errors : sum local = 0.00228472, global = 0.00014562, cumulative = 0.00119872
smoothSolver:  Solving for omega, Initial residual = 0.0169442, Final residual = 0.00111636, No Iterations 6
smoothSolver:  Solving for k, Initial residual = 0.0941403, Final residual = 0.00706675, No Iterations 6
ExecutionTime = 0.23 s  ClockTime = 1 s

scalarTransport execute: age
smoothSolver:  Solving for age, Initial residual = 0.0475741, Final residual = 0.00435862, No Iterations 12

Time = 16

smoothSolver:  Solving for Ux, Initial residual = 0.024533, Final residual = 0.00168025, No Iterations 6
smoothSolver:  Solving for Uy, Initial residual = 0.015647, Final residual = 0.00153073, No Iterations 5
GAMG:  Solving for p, Initial residual = 0.0196795, Final residual = 0.000762755, No Iterations 2
time step continuity errors : sum local = 0.00217905, global = 0.000248781, cumulative = 0.0014475
smoothSolver:  Solving for omega, Initial residual = 0.0149345, Final residual = 0.000993713, No Iterations 6
smoothSolver:  Solving for k, Initial residual = 0.0867504, Final residual = 0.00657286, No Iterations 6
ExecutionTime = 0.24 s  ClockTime = 1 s

scalarTransport execute: age
smoothSolver:  Solving for age, Initial residual = 0.0412097, Final residual = 0.00380808, No Iterations 12

Time = 17

smoothSolver:  Solving for Ux, Initial residual = 0.0238103, Final residual = 0.00163612, No Iterations 6
smoothSolver:  Solving for Uy, Initial residual = 0.0153556, Final residual = 0.00150446, No Iterations 5
GAMG:  Solving for p, Initial residual = 0.0189565, Final residual = 0.00073316, No Iterations 2
time step continuity errors : sum local = 0.00207999, global = 0.000325736, cumulative = 0.00177324
smoothSolver:  Solving for omega, Initial residual = 0.0132942, Final residual = 0.000889716, No Iterations 6
smoothSolver:  Solving for k, Initial residual = 0.0803574, Final residual = 0.00613707, No Iterations 6
ExecutionTime = 0.25 s  ClockTime = 1 s

scalarTransport execute: age
smoothSolver:  Solving for age, Initial residual = 0.0358865, Final residual = 0.00330537, No Iterations 12

Time = 18

smoothSolver:  Solving for Ux, Initial residual = 0.0231799, Final residual = 0.00159873, No Iterations 6
smoothSolver:  Solving for Uy, Initial residual = 0.0150391, Final residual = 0.00147434, No Iterations 5
GAMG:  Solving for p, Initial residual = 0.0183093, Final residual = 0.000715437, No Iterations 2
time step continuity errors : sum local = 0.00201563, global = 0.00037541, cumulative = 0.00214865
smoothSolver:  Solving for omega, Initial residual = 0.0118981, Final residual = 0.000801214, No Iterations 6
smoothSolver:  Solving for k, Initial residual = 0.074758, Final residual = 0.00574891, No Iterations 6
ExecutionTime = 0.27 s  ClockTime = 1 s

scalarTransport execute: age
smoothSolver:  Solving for age, Initial residual = 0.0314407, Final residual = 0.002862, No Iterations 12

Time = 19

smoothSolver:  Solving for Ux, Initial residual = 0.0225947, Final residual = 0.00156636, No Iterations 6
smoothSolver:  Solving for Uy, Initial residual = 0.0146934, Final residual = 0.00144107, No Iterations 5
GAMG:  Solving for p, Initial residual = 0.0177105, Final residual = 0.000698474, No Iterations 2
time step continuity errors : sum local = 0.00195411, global = 0.000398763, cumulative = 0.00254741
smoothSolver:  Solving for omega, Initial residual = 0.0107113, Final residual = 0.000725231, No Iterations 6
smoothSolver:  Solving for k, Initial residual = 0.0698155, Final residual = 0.00540105, No Iterations 6
ExecutionTime = 0.28 s  ClockTime = 1 s

scalarTransport execute: age
smoothSolver:  Solving for age, Initial residual = 0.0278038, Final residual = 0.00247171, No Iterations 12

Time = 20

smoothSolver:  Solving for Ux, Initial residual = 0.0220636, Final residual = 0.00153733, No Iterations 6
smoothSolver:  Solving for Uy, Initial residual = 0.0143177, Final residual = 0.00140558, No Iterations 5
GAMG:  Solving for p, Initial residual = 0.0170241, Final residual = 0.000675393, No Iterations 2
time step continuity errors : sum local = 0.00187758, global = 0.000398342, cumulative = 0.00294575
smoothSolver:  Solving for omega, Initial residual = 0.00969956, Final residual = 0.000659309, No Iterations 6
smoothSolver:  Solving for k, Initial residual = 0.0654415, Final residual = 0.00508893, No Iterations 6
ExecutionTime = 0.29 s  ClockTime = 1 s

scalarTransport execute: age
smoothSolver:  Solving for age, Initial residual = 0.0247304, Final residual = 0.00212317, No Iterations 12

Time = 21

smoothSolver:  Solving for Ux, Initial residual = 0.021611, Final residual = 0.00151179, No Iterations 6
smoothSolver:  Solving for Uy, Initial residual = 0.0138961, Final residual = 0.0013698, No Iterations 5
GAMG:  Solving for p, Initial residual = 0.0163013, Final residual = 0.00064646, No Iterations 2
time step continuity errors : sum local = 0.00178703, global = 0.000381165, cumulative = 0.00332692
smoothSolver:  Solving for omega, Initial residual = 0.00882734, Final residual = 0.000601958, No Iterations 6
smoothSolver:  Solving for k, Initial residual = 0.0615372, Final residual = 0.00480726, No Iterations 6
ExecutionTime = 0.31 s  ClockTime = 1 s

scalarTransport execute: age
smoothSolver:  Solving for age, Initial residual = 0.0221718, Final residual = 0.00214266, No Iterations 11

Time = 22

smoothSolver:  Solving for Ux, Initial residual = 0.0212175, Final residual = 0.0014888, No Iterations 6
smoothSolver:  Solving for Uy, Initial residual = 0.0134738, Final residual = 0.00133485, No Iterations 5
GAMG:  Solving for p, Initial residual = 0.0155103, Final residual = 0.000614415, No Iterations 2
time step continuity errors : sum local = 0.00169047, global = 0.000354586, cumulative = 0.0036815
smoothSolver:  Solving for omega, Initial residual = 0.00806992, Final residual = 0.00055175, No Iterations 6
smoothSolver:  Solving for k, Initial residual = 0.0580305, Final residual = 0.00455149, No Iterations 6
ExecutionTime = 0.32 s  ClockTime = 1 s

scalarTransport execute: age
smoothSolver:  Solving for age, Initial residual = 0.0200696, Final residual = 0.00184171, No Iterations 11

Time = 23

smoothSolver:  Solving for Ux, Initial residual = 0.0208392, Final residual = 0.0014696, No Iterations 6
smoothSolver:  Solving for Uy, Initial residual = 0.0130765, Final residual = 0.00130079, No Iterations 5
GAMG:  Solving for p, Initial residual = 0.0146836, Final residual = 0.00058242, No Iterations 2
time step continuity errors : sum local = 0.00159514, global = 0.000323814, cumulative = 0.00400532
smoothSolver:  Solving for omega, Initial residual = 0.00740642, Final residual = 0.000507477, No Iterations 6
smoothSolver:  Solving for k, Initial residual = 0.0548673, Final residual = 0.00431859, No Iterations 6
ExecutionTime = 0.33 s  ClockTime = 1 s

scalarTransport execute: age
smoothSolver:  Solving for age, Initial residual = 0.0183351, Final residual = 0.00157353, No Iterations 11

Time = 24

smoothSolver:  Solving for Ux, Initial residual = 0.0205133, Final residual = 0.0014542, No Iterations 6
smoothSolver:  Solving for Uy, Initial residual = 0.0126932, Final residual = 0.00126786, No Iterations 5
GAMG:  Solving for p, Initial residual = 0.0139335, Final residual = 0.000553414, No Iterations 2
time step continuity errors : sum local = 0.00150702, global = 0.000292414, cumulative = 0.00429773
smoothSolver:  Solving for omega, Initial residual = 0.00681817, Final residual = 0.000468138, No Iterations 6
smoothSolver:  Solving for k, Initial residual = 0.0519972, Final residual = 0.00410538, No Iterations 6
ExecutionTime = 0.34 s  ClockTime = 1 s

scalarTransport execute: age
smoothSolver:  Solving for age, Initial residual = 0.0168471, Final residual = 0.00160219, No Iterations 10

Time = 25

smoothSolver:  Solving for Ux, Initial residual = 0.0202203, Final residual = 0.00144265, No Iterations 6
smoothSolver:  Solving for Uy, Initial residual = 0.0123425, Final residual = 0.000806351, No Iterations 6
GAMG:  Solving for p, Initial residual = 0.0135091, Final residual = 0.000531211, No Iterations 2
time step continuity errors : sum local = 0.00143944, global = 0.000264766, cumulative = 0.0045625
smoothSolver:  Solving for omega, Initial residual = 0.00630659, Final residual = 0.000433213, No Iterations 6
smoothSolver:  Solving for k, Initial residual = 0.0493806, Final residual = 0.00390948, No Iterations 6
ExecutionTime = 0.36 s  ClockTime = 1 s

scalarTransport execute: age
smoothSolver:  Solving for age, Initial residual = 0.015683, Final residual = 0.00139886, No Iterations 10

Time = 26

smoothSolver:  Solving for Ux, Initial residual = 0.0200025, Final residual = 0.00143663, No Iterations 6
smoothSolver:  Solving for Uy, Initial residual = 0.0119451, Final residual = 0.00118873, No Iterations 5
GAMG:  Solving for p, Initial residual = 0.0134792, Final residual = 0.000509277, No Iterations 2
time step continuity errors : sum local = 0.00137396, global = 0.000239388, cumulative = 0.00480189
smoothSolver:  Solving for omega, Initial residual = 0.00585405, Final residual = 0.000402066, No Iterations 6
smoothSolver:  Solving for k, Initial residual = 0.0469845, Final residual = 0.00372871, No Iterations 6
ExecutionTime = 0.37 s  ClockTime = 1 s

scalarTransport execute: age
smoothSolver:  Solving for age, Initial residual = 0.0148674, Final residual = 0.00126007, No Iterations 10

Time = 27

smoothSolver:  Solving for Ux, Initial residual = 0.0197946, Final residual = 0.00142956, No Iterations 6
smoothSolver:  Solving for Uy, Initial residual = 0.0116785, Final residual = 0.00115897, No Iterations 5
GAMG:  Solving for p, Initial residual = 0.0135013, Final residual = 0.000494003, No Iterations 2
time step continuity errors : sum local = 0.00132798, global = 0.000217737, cumulative = 0.00501962
smoothSolver:  Solving for omega, Initial residual = 0.00545446, Final residual = 0.000374138, No Iterations 6
smoothSolver:  Solving for k, Initial residual = 0.0447719, Final residual = 0.00356078, No Iterations 6
ExecutionTime = 0.38 s  ClockTime = 1 s

scalarTransport execute: age
smoothSolver:  Solving for age, Initial residual = 0.0143249, Final residual = 0.00137654, No Iterations 9

Time = 28

smoothSolver:  Solving for Ux, Initial residual = 0.0196844, Final residual = 0.00142528, No Iterations 6
smoothSolver:  Solving for Uy, Initial residual = 0.011418, Final residual = 0.00112922, No Iterations 5
GAMG:  Solving for p, Initial residual = 0.0135027, Final residual = 0.000494222, No Iterations 2
time step continuity errors : sum local = 0.00131955, global = 0.000199081, cumulative = 0.0052187
smoothSolver:  Solving for omega, Initial residual = 0.00509744, Final residual = 0.00034886, No Iterations 6
smoothSolver:  Solving for k, Initial residual = 0.0427269, Final residual = 0.0034049, No Iterations 6
ExecutionTime = 0.39 s  ClockTime = 1 s

scalarTransport execute: age
smoothSolver:  Solving for age, Initial residual = 0.013859, Final residual = 0.00132184, No Iterations 9

Time = 29

smoothSolver:  Solving for Ux, Initial residual = 0.019651, Final residual = 0.00142278, No Iterations 6
smoothSolver:  Solving for Uy, Initial residual = 0.0111375, Final residual = 0.00109755, No Iterations 5
GAMG:  Solving for p, Initial residual = 0.0134554, Final residual = 0.00049998, No Iterations 2
time step continuity errors : sum local = 0.00132864, global = 0.000184713, cumulative = 0.00540342
smoothSolver:  Solving for omega, Initial residual = 0.00477416, Final residual = 0.000325904, No Iterations 6
smoothSolver:  Solving for k, Initial residual = 0.0408282, Final residual = 0.00325957, No Iterations 6
ExecutionTime = 0.41 s  ClockTime = 1 s

scalarTransport execute: age
smoothSolver:  Solving for age, Initial residual = 0.0136104, Final residual = 0.0013066, No Iterations 9

Time = 30

smoothSolver:  Solving for Ux, Initial residual = 0.0196583, Final residual = 0.00142189, No Iterations 6
smoothSolver:  Solving for Uy, Initial residual = 0.0108222, Final residual = 0.00106247, No Iterations 5
GAMG:  Solving for p, Initial residual = 0.0132981, Final residual = 0.000498115, No Iterations 2
time step continuity errors : sum local = 0.00131886, global = 0.000173964, cumulative = 0.00557738
smoothSolver:  Solving for omega, Initial residual = 0.00448096, Final residual = 0.000304991, No Iterations 6
smoothSolver:  Solving for k, Initial residual = 0.0390597, Final residual = 0.0031238, No Iterations 6
ExecutionTime = 0.42 s  ClockTime = 1 s

scalarTransport execute: age
smoothSolver:  Solving for age, Initial residual = 0.0134843, Final residual = 0.00132235, No Iterations 9

Time = 31

smoothSolver:  Solving for Ux, Initial residual = 0.0196884, Final residual = 0.00142194, No Iterations 6
smoothSolver:  Solving for Uy, Initial residual = 0.0104719, Final residual = 0.00102469, No Iterations 5
GAMG:  Solving for p, Initial residual = 0.0129921, Final residual = 0.000491398, No Iterations 2
time step continuity errors : sum local = 0.00129852, global = 0.000165439, cumulative = 0.00574282
smoothSolver:  Solving for omega, Initial residual = 0.00421215, Final residual = 0.000285903, No Iterations 6
smoothSolver:  Solving for k, Initial residual = 0.0374105, Final residual = 0.0029969, No Iterations 6
ExecutionTime = 0.43 s  ClockTime = 1 s

scalarTransport execute: age
smoothSolver:  Solving for age, Initial residual = 0.013562, Final residual = 0.00118391, No Iterations 10

Time = 32

smoothSolver:  Solving for Ux, Initial residual = 0.0197374, Final residual = 0.00142291, No Iterations 6
smoothSolver:  Solving for Uy, Initial residual = 0.0100844, Final residual = 0.000985216, No Iterations 5
GAMG:  Solving for p, Initial residual = 0.012474, Final residual = 0.000477276, No Iterations 2
time step continuity errors : sum local = 0.00126014, global = 0.00015807, cumulative = 0.00590089
smoothSolver:  Solving for omega, Initial residual = 0.00396992, Final residual = 0.000268386, No Iterations 6
smoothSolver:  Solving for k, Initial residual = 0.0358672, Final residual = 0.00287798, No Iterations 6
ExecutionTime = 0.44 s  ClockTime = 1 s

scalarTransport execute: age
smoothSolver:  Solving for age, Initial residual = 0.0137303, Final residual = 0.00124273, No Iterations 10

Time = 33

smoothSolver:  Solving for Ux, Initial residual = 0.0197758, Final residual = 0.0014244, No Iterations 6
smoothSolver:  Solving for Uy, Initial residual = 0.00968173, Final residual = 0.000946246, No Iterations 5
GAMG:  Solving for p, Initial residual = 0.01201, Final residual = 0.00045913, No Iterations 2
time step continuity errors : sum local = 0.00121216, global = 0.000151409, cumulative = 0.0060523
smoothSolver:  Solving for omega, Initial residual = 0.00374842, Final residual = 0.000252296, No Iterations 6
smoothSolver:  Solving for k, Initial residual = 0.0344223, Final residual = 0.00276661, No Iterations 6
ExecutionTime = 0.46 s  ClockTime = 1 s

scalarTransport execute: age
smoothSolver:  Solving for age, Initial residual = 0.0140569, Final residual = 0.00132078, No Iterations 10

Time = 34

smoothSolver:  Solving for Ux, Initial residual = 0.0197832, Final residual = 0.0014262, No Iterations 6
smoothSolver:  Solving for Uy, Initial residual = 0.00928072, Final residual = 0.000908924, No Iterations 5
GAMG:  Solving for p, Initial residual = 0.011496, Final residual = 0.000438283, No Iterations 2
time step continuity errors : sum local = 0.00115559, global = 0.000141625, cumulative = 0.00619392
smoothSolver:  Solving for omega, Initial residual = 0.0035423, Final residual = 0.000237375, No Iterations 6
smoothSolver:  Solving for k, Initial residual = 0.0330662, Final residual = 0.00266225, No Iterations 6
ExecutionTime = 0.47 s  ClockTime = 1 s

scalarTransport execute: age
smoothSolver:  Solving for age, Initial residual = 0.0144597, Final residual = 0.0013985, No Iterations 10

Time = 35

smoothSolver:  Solving for Ux, Initial residual = 0.0197667, Final residual = 0.00142763, No Iterations 6
smoothSolver:  Solving for Uy, Initial residual = 0.00891029, Final residual = 0.000874933, No Iterations 5
GAMG:  Solving for p, Initial residual = 0.0111834, Final residual = 0.00042819, No Iterations 2
time step continuity errors : sum local = 0.0011291, global = 0.000133023, cumulative = 0.00632695
smoothSolver:  Solving for omega, Initial residual = 0.00335206, Final residual = 0.000223587, No Iterations 6
smoothSolver:  Solving for k, Initial residual = 0.0317972, Final residual = 0.0025646, No Iterations 6
ExecutionTime = 0.48 s  ClockTime = 1 s

scalarTransport execute: age
smoothSolver:  Solving for age, Initial residual = 0.0148276, Final residual = 0.00146946, No Iterations 10

Time = 36

smoothSolver:  Solving for Ux, Initial residual = 0.01972, Final residual = 0.00142694, No Iterations 6
smoothSolver:  Solving for Uy, Initial residual = 0.00858976, Final residual = 0.000844636, No Iterations 5
GAMG:  Solving for p, Initial residual = 0.0110124, Final residual = 0.000431721, No Iterations 2
time step continuity errors : sum local = 0.00113791, global = 0.000126925, cumulative = 0.00645387
smoothSolver:  Solving for omega, Initial residual = 0.00317754, Final residual = 0.000210811, No Iterations 6
smoothSolver:  Solving for k, Initial residual = 0.0306104, Final residual = 0.00247311, No Iterations 6
ExecutionTime = 0.49 s  ClockTime = 1 s

scalarTransport execute: age
smoothSolver:  Solving for age, Initial residual = 0.0152168, Final residual = 0.00131914, No Iterations 11

Time = 37

smoothSolver:  Solving for Ux, Initial residual = 0.0196712, Final residual = 0.00142415, No Iterations 6
smoothSolver:  Solving for Uy, Initial residual = 0.00830241, Final residual = 0.000818214, No Iterations 5
GAMG:  Solving for p, Initial residual = 0.0108361, Final residual = 0.000447927, No Iterations 2
time step continuity errors : sum local = 0.0011786, global = 0.000121829, cumulative = 0.0065757
smoothSolver:  Solving for omega, Initial residual = 0.00301551, Final residual = 0.000198913, No Iterations 6
smoothSolver:  Solving for k, Initial residual = 0.0295014, Final residual = 0.00238736, No Iterations 6
ExecutionTime = 0.51 s  ClockTime = 1 s

scalarTransport execute: age
smoothSolver:  Solving for age, Initial residual = 0.0154699, Final residual = 0.00136528, No Iterations 11

Time = 38

smoothSolver:  Solving for Ux, Initial residual = 0.0196213, Final residual = 0.00141912, No Iterations 6
smoothSolver:  Solving for Uy, Initial residual = 0.00803941, Final residual = 0.00079596, No Iterations 5
GAMG:  Solving for p, Initial residual = 0.0107064, Final residual = 0.000469417, No Iterations 2
time step continuity errors : sum local = 0.00123427, global = 0.000119243, cumulative = 0.00669494
smoothSolver:  Solving for omega, Initial residual = 0.00286319, Final residual = 0.00018784, No Iterations 6
smoothSolver:  Solving for k, Initial residual = 0.0284679, Final residual = 0.00230697, No Iterations 6
ExecutionTime = 0.52 s  ClockTime = 1 s

scalarTransport execute: age
smoothSolver:  Solving for age, Initial residual = 0.0156985, Final residual = 0.00140897, No Iterations 11

Time = 39

smoothSolver:  Solving for Ux, Initial residual = 0.0195551, Final residual = 0.00141208, No Iterations 6
smoothSolver:  Solving for Uy, Initial residual = 0.00781667, Final residual = 0.000778067, No Iterations 5
GAMG:  Solving for p, Initial residual = 0.0105293, Final residual = 0.000491794, No Iterations 2
time step continuity errors : sum local = 0.00129082, global = 0.000118047, cumulative = 0.00681299
smoothSolver:  Solving for omega, Initial residual = 0.00272365, Final residual = 0.000177496, No Iterations 6
smoothSolver:  Solving for k, Initial residual = 0.0275019, Final residual = 0.00223132, No Iterations 6
ExecutionTime = 0.53 s  ClockTime = 1 s

scalarTransport execute: age
smoothSolver:  Solving for age, Initial residual = 0.0158695, Final residual = 0.00145907, No Iterations 11

Time = 40

smoothSolver:  Solving for Ux, Initial residual = 0.0194719, Final residual = 0.00140324, No Iterations 6
smoothSolver:  Solving for Uy, Initial residual = 0.00763924, Final residual = 0.000496949, No Iterations 6
GAMG:  Solving for p, Initial residual = 0.0103878, Final residual = 0.000509163, No Iterations 2
time step continuity errors : sum local = 0.00133249, global = 0.000123604, cumulative = 0.0069366
smoothSolver:  Solving for omega, Initial residual = 0.00259179, Final residual = 0.000258256, No Iterations 5
smoothSolver:  Solving for k, Initial residual = 0.0266182, Final residual = 0.00216159, No Iterations 6
ExecutionTime = 0.55 s  ClockTime = 1 s

scalarTransport execute: age
smoothSolver:  Solving for age, Initial residual = 0.016078, Final residual = 0.00150786, No Iterations 11

Time = 41

smoothSolver:  Solving for Ux, Initial residual = 0.0193665, Final residual = 0.00139281, No Iterations 6
smoothSolver:  Solving for Uy, Initial residual = 0.00742663, Final residual = 0.000485545, No Iterations 6
GAMG:  Solving for p, Initial residual = 0.0102329, Final residual = 0.000532333, No Iterations 2
time step continuity errors : sum local = 0.00139157, global = 0.00013064, cumulative = 0.00706724
smoothSolver:  Solving for omega, Initial residual = 0.00248344, Final residual = 0.000245369, No Iterations 5
smoothSolver:  Solving for k, Initial residual = 0.0258002, Final residual = 0.00209649, No Iterations 6
ExecutionTime = 0.56 s  ClockTime = 1 s

scalarTransport execute: age
smoothSolver:  Solving for age, Initial residual = 0.0161983, Final residual = 0.00154382, No Iterations 11

Time = 42

smoothSolver:  Solving for Ux, Initial residual = 0.019242, Final residual = 0.00138154, No Iterations 6
smoothSolver:  Solving for Uy, Initial residual = 0.00727693, Final residual = 0.000478634, No Iterations 6
GAMG:  Solving for p, Initial residual = 0.0101815, Final residual = 0.000559852, No Iterations 2
time step continuity errors : sum local = 0.0014629, global = 0.000138974, cumulative = 0.00720621
smoothSolver:  Solving for omega, Initial residual = 0.00238205, Final residual = 0.000233215, No Iterations 5
smoothSolver:  Solving for k, Initial residual = 0.0250318, Final residual = 0.0020347, No Iterations 6
ExecutionTime = 0.57 s  ClockTime = 1 s

scalarTransport execute: age
smoothSolver:  Solving for age, Initial residual = 0.0163378, Final residual = 0.00156889, No Iterations 11

Time = 43

smoothSolver:  Solving for Ux, Initial residual = 0.0191076, Final residual = 0.00136997, No Iterations 6
smoothSolver:  Solving for Uy, Initial residual = 0.00719822, Final residual = 0.00047715, No Iterations 6
GAMG:  Solving for p, Initial residual = 0.0101462, Final residual = 0.000585704, No Iterations 2
time step continuity errors : sum local = 0.00153038, global = 0.000147432, cumulative = 0.00735364
smoothSolver:  Solving for omega, Initial residual = 0.0022842, Final residual = 0.000221692, No Iterations 5
smoothSolver:  Solving for k, Initial residual = 0.0243074, Final residual = 0.00197621, No Iterations 6
ExecutionTime = 0.57 s  ClockTime = 1 s

scalarTransport execute: age
smoothSolver:  Solving for age, Initial residual = 0.016503, Final residual = 0.00155847, No Iterations 11

Time = 44

smoothSolver:  Solving for Ux, Initial residual = 0.0189605, Final residual = 0.00135871, No Iterations 6
smoothSolver:  Solving for Uy, Initial residual = 0.00717131, Final residual = 0.000480775, No Iterations 6
GAMG:  Solving for p, Initial residual = 0.00998826, Final residual = 0.00060141, No Iterations 2
time step continuity errors : sum local = 0.00156744, global = 0.000156142, cumulative = 0.00750978
smoothSolver:  Solving for omega, Initial residual = 0.00219265, Final residual = 0.000210782, No Iterations 5
smoothSolver:  Solving for k, Initial residual = 0.0236249, Final residual = 0.00192083, No Iterations 6
ExecutionTime = 0.6 s  ClockTime = 1 s

scalarTransport execute: age
smoothSolver:  Solving for age, Initial residual = 0.0160992, Final residual = 0.00154791, No Iterations 11

Time = 45

smoothSolver:  Solving for Ux, Initial residual = 0.0188018, Final residual = 0.00134772, No Iterations 6
smoothSolver:  Solving for Uy, Initial residual = 0.00719733, Final residual = 0.000488348, No Iterations 6
GAMG:  Solving for p, Initial residual = 0.00980243, Final residual = 0.000608216, No Iterations 2
time step continuity errors : sum local = 0.0015806, global = 0.000163536, cumulative = 0.00767332
smoothSolver:  Solving for omega, Initial residual = 0.00210176, Final residual = 0.000200522, No Iterations 5
smoothSolver:  Solving for k, Initial residual = 0.0229788, Final residual = 0.00186826, No Iterations 6
ExecutionTime = 0.61 s  ClockTime = 1 s

scalarTransport execute: age
smoothSolver:  Solving for age, Initial residual = 0.0159569, Final residual = 0.0015496, No Iterations 11

Time = 46

smoothSolver:  Solving for Ux, Initial residual = 0.018633, Final residual = 0.00133646, No Iterations 6
smoothSolver:  Solving for Uy, Initial residual = 0.00725232, Final residual = 0.000498605, No Iterations 6
GAMG:  Solving for p, Initial residual = 0.00964951, Final residual = 0.000615069, No Iterations 2
time step continuity errors : sum local = 0.00159516, global = 0.000169531, cumulative = 0.00784285
smoothSolver:  Solving for omega, Initial residual = 0.00201207, Final residual = 0.000190929, No Iterations 5
smoothSolver:  Solving for k, Initial residual = 0.0223648, Final residual = 0.00181819, No Iterations 6
ExecutionTime = 0.62 s  ClockTime = 1 s

scalarTransport execute: age
smoothSolver:  Solving for age, Initial residual = 0.0158162, Final residual = 0.0013832, No Iterations 12

Time = 47

smoothSolver:  Solving for Ux, Initial residual = 0.0184546, Final residual = 0.00132489, No Iterations 6
smoothSolver:  Solving for Uy, Initial residual = 0.00732776, Final residual = 0.000510417, No Iterations 6
GAMG:  Solving for p, Initial residual = 0.00949699, Final residual = 0.000621529, No Iterations 2
time step continuity errors : sum local = 0.00160908, global = 0.000172973, cumulative = 0.00801582
smoothSolver:  Solving for omega, Initial residual = 0.00193186, Final residual = 0.000181969, No Iterations 5
smoothSolver:  Solving for k, Initial residual = 0.0217811, Final residual = 0.00177048, No Iterations 6
ExecutionTime = 0.64 s  ClockTime = 1 s

scalarTransport execute: age
smoothSolver:  Solving for age, Initial residual = 0.0157408, Final residual = 0.00142602, No Iterations 12

Time = 48

smoothSolver:  Solving for Ux, Initial residual = 0.0182659, Final residual = 0.00131334, No Iterations 6
smoothSolver:  Solving for Uy, Initial residual = 0.00742907, Final residual = 0.000523443, No Iterations 6
GAMG:  Solving for p, Initial residual = 0.00932767, Final residual = 0.000632614, No Iterations 2
time step continuity errors : sum local = 0.00163528, global = 0.000175838, cumulative = 0.00819166
smoothSolver:  Solving for omega, Initial residual = 0.00185175, Final residual = 0.000173526, No Iterations 5
smoothSolver:  Solving for k, Initial residual = 0.0212266, Final residual = 0.001725, No Iterations 6
ExecutionTime = 0.65 s  ClockTime = 1 s

scalarTransport execute: age
smoothSolver:  Solving for age, Initial residual = 0.0157203, Final residual = 0.00147331, No Iterations 12

Time = 49

smoothSolver:  Solving for Ux, Initial residual = 0.0180582, Final residual = 0.0013006, No Iterations 6
smoothSolver:  Solving for Uy, Initial residual = 0.00753376, Final residual = 0.00053747, No Iterations 6
GAMG:  Solving for p, Initial residual = 0.00916049, Final residual = 0.000643844, No Iterations 2
time step continuity errors : sum local = 0.00166211, global = 0.000177473, cumulative = 0.00836914
smoothSolver:  Solving for omega, Initial residual = 0.00177929, Final residual = 0.000165539, No Iterations 5
smoothSolver:  Solving for k, Initial residual = 0.0206995, Final residual = 0.00168148, No Iterations 6
ExecutionTime = 0.66 s  ClockTime = 1 s

scalarTransport execute: age
smoothSolver:  Solving for age, Initial residual = 0.0158335, Final residual = 0.00151885, No Iterations 12

Time = 50

smoothSolver:  Solving for Ux, Initial residual = 0.0178325, Final residual = 0.00128671, No Iterations 6
smoothSolver:  Solving for Uy, Initial residual = 0.00766162, Final residual = 0.000552561, No Iterations 6
GAMG:  Solving for p, Initial residual = 0.00897265, Final residual = 0.000655021, No Iterations 2
time step continuity errors : sum local = 0.00168809, global = 0.000178244, cumulative = 0.00854738
smoothSolver:  Solving for omega, Initial residual = 0.00170991, Final residual = 0.000157884, No Iterations 5
smoothSolver:  Solving for k, Initial residual = 0.0201995, Final residual = 0.00163994, No Iterations 6
ExecutionTime = 0.67 s  ClockTime = 1 s

scalarTransport execute: age
smoothSolver:  Solving for age, Initial residual = 0.0159856, Final residual = 0.00156262, No Iterations 12

Time = 51

smoothSolver:  Solving for Ux, Initial residual = 0.0175859, Final residual = 0.00127213, No Iterations 6
smoothSolver:  Solving for Uy, Initial residual = 0.00780485, Final residual = 0.000568435, No Iterations 6
GAMG:  Solving for p, Initial residual = 0.00878022, Final residual = 0.000664648, No Iterations 2
time step continuity errors : sum local = 0.00171023, global = 0.000178372, cumulative = 0.00872575
smoothSolver:  Solving for omega, Initial residual = 0.00164354, Final residual = 0.000150686, No Iterations 5
smoothSolver:  Solving for k, Initial residual = 0.0197228, Final residual = 0.00160015, No Iterations 6
ExecutionTime = 0.69 s  ClockTime = 1 s

scalarTransport execute: age
smoothSolver:  Solving for age, Initial residual = 0.0161724, Final residual = 0.00160223, No Iterations 12

Time = 52

smoothSolver:  Solving for Ux, Initial residual = 0.0173317, Final residual = 0.00125728, No Iterations 6
smoothSolver:  Solving for Uy, Initial residual = 0.00795658, Final residual = 0.000584702, No Iterations 6
GAMG:  Solving for p, Initial residual = 0.00860585, Final residual = 0.000673911, No Iterations 2
time step continuity errors : sum local = 0.001731, global = 0.000178187, cumulative = 0.00890394
smoothSolver:  Solving for omega, Initial residual = 0.00158045, Final residual = 0.000143928, No Iterations 5
smoothSolver:  Solving for k, Initial residual = 0.0192672, Final residual = 0.00156196, No Iterations 6
ExecutionTime = 0.7 s  ClockTime = 1 s

scalarTransport execute: age
smoothSolver:  Solving for age, Initial residual = 0.0163439, Final residual = 0.00143281, No Iterations 13

Time = 53

smoothSolver:  Solving for Ux, Initial residual = 0.0170758, Final residual = 0.00124222, No Iterations 6
smoothSolver:  Solving for Uy, Initial residual = 0.00811585, Final residual = 0.000600766, No Iterations 6
GAMG:  Solving for p, Initial residual = 0.00845576, Final residual = 0.000685004, No Iterations 2
time step continuity errors : sum local = 0.00175602, global = 0.0001791, cumulative = 0.00908304
smoothSolver:  Solving for omega, Initial residual = 0.0015216, Final residual = 0.00013759, No Iterations 5
smoothSolver:  Solving for k, Initial residual = 0.0188324, Final residual = 0.00152521, No Iterations 6
ExecutionTime = 0.71 s  ClockTime = 1 s

scalarTransport execute: age
smoothSolver:  Solving for age, Initial residual = 0.0164116, Final residual = 0.00145425, No Iterations 13

Time = 54

smoothSolver:  Solving for Ux, Initial residual = 0.0168262, Final residual = 0.00122646, No Iterations 6
smoothSolver:  Solving for Uy, Initial residual = 0.00827744, Final residual = 0.00061638, No Iterations 6
GAMG:  Solving for p, Initial residual = 0.00832282, Final residual = 0.000694954, No Iterations 2
time step continuity errors : sum local = 0.00177822, global = 0.00018112, cumulative = 0.00926416
smoothSolver:  Solving for omega, Initial residual = 0.00146726, Final residual = 0.000131644, No Iterations 5
smoothSolver:  Solving for k, Initial residual = 0.0184165, Final residual = 0.00148986, No Iterations 6
ExecutionTime = 0.73 s  ClockTime = 1 s

scalarTransport execute: age
smoothSolver:  Solving for age, Initial residual = 0.0165009, Final residual = 0.00147578, No Iterations 13

Time = 55

smoothSolver:  Solving for Ux, Initial residual = 0.0165905, Final residual = 0.00121087, No Iterations 6
smoothSolver:  Solving for Uy, Initial residual = 0.00844176, Final residual = 0.000631302, No Iterations 6
GAMG:  Solving for p, Initial residual = 0.0082191, Final residual = 0.000706089, No Iterations 2
time step continuity errors : sum local = 0.00180341, global = 0.000182481, cumulative = 0.00944664
smoothSolver:  Solving for omega, Initial residual = 0.00141788, Final residual = 0.000126148, No Iterations 5
smoothSolver:  Solving for k, Initial residual = 0.018017, Final residual = 0.00145579, No Iterations 6
ExecutionTime = 0.74 s  ClockTime = 1 s

scalarTransport execute: age
smoothSolver:  Solving for age, Initial residual = 0.0164756, Final residual = 0.00149584, No Iterations 13

Time = 56

smoothSolver:  Solving for Ux, Initial residual = 0.0163661, Final residual = 0.00119539, No Iterations 6
smoothSolver:  Solving for Uy, Initial residual = 0.00860069, Final residual = 0.000644924, No Iterations 6
GAMG:  Solving for p, Initial residual = 0.00813827, Final residual = 0.000719633, No Iterations 2
time step continuity errors : sum local = 0.00183484, global = 0.000183103, cumulative = 0.00962974
smoothSolver:  Solving for omega, Initial residual = 0.0013752, Final residual = 0.000120996, No Iterations 5
smoothSolver:  Solving for k, Initial residual = 0.0176325, Final residual = 0.00142294, No Iterations 6
ExecutionTime = 0.75 s  ClockTime = 1 s

scalarTransport execute: age
smoothSolver:  Solving for age, Initial residual = 0.0165522, Final residual = 0.00151256, No Iterations 13

Time = 57

smoothSolver:  Solving for Ux, Initial residual = 0.0161504, Final residual = 0.00118004, No Iterations 6
smoothSolver:  Solving for Uy, Initial residual = 0.00874027, Final residual = 0.000657268, No Iterations 6
GAMG:  Solving for p, Initial residual = 0.0081, Final residual = 0.00073467, No Iterations 2
time step continuity errors : sum local = 0.00186969, global = 0.000182871, cumulative = 0.00981261
smoothSolver:  Solving for omega, Initial residual = 0.0013366, Final residual = 0.000116218, No Iterations 5
smoothSolver:  Solving for k, Initial residual = 0.0172614, Final residual = 0.00139123, No Iterations 6
ExecutionTime = 0.76 s  ClockTime = 1 s

scalarTransport execute: age
smoothSolver:  Solving for age, Initial residual = 0.0166764, Final residual = 0.0015272, No Iterations 13

Time = 58

smoothSolver:  Solving for Ux, Initial residual = 0.0159357, Final residual = 0.00116462, No Iterations 6
smoothSolver:  Solving for Uy, Initial residual = 0.00886237, Final residual = 0.000667897, No Iterations 6
GAMG:  Solving for p, Initial residual = 0.00797949, Final residual = 0.000742468, No Iterations 2
time step continuity errors : sum local = 0.0018837, global = 0.00018155, cumulative = 0.00999416
smoothSolver:  Solving for omega, Initial residual = 0.00129305, Final residual = 0.000111695, No Iterations 5
smoothSolver:  Solving for k, Initial residual = 0.0169053, Final residual = 0.00136062, No Iterations 6
ExecutionTime = 0.78 s  ClockTime = 1 s

scalarTransport execute: age
smoothSolver:  Solving for age, Initial residual = 0.0168253, Final residual = 0.00154075, No Iterations 13

Time = 59

smoothSolver:  Solving for Ux, Initial residual = 0.0157204, Final residual = 0.00114937, No Iterations 6
smoothSolver:  Solving for Uy, Initial residual = 0.00895996, Final residual = 0.000676984, No Iterations 6
GAMG:  Solving for p, Initial residual = 0.00790611, Final residual = 0.000748007, No Iterations 2
time step continuity errors : sum local = 0.00189103, global = 0.00017946, cumulative = 0.0101736
smoothSolver:  Solving for omega, Initial residual = 0.00125579, Final residual = 0.000107529, No Iterations 5
smoothSolver:  Solving for k, Initial residual = 0.0165612, Final residual = 0.00133104, No Iterations 6
ExecutionTime = 0.79 s  ClockTime = 1 s

scalarTransport execute: age
smoothSolver:  Solving for age, Initial residual = 0.0169305, Final residual = 0.00155167, No Iterations 13

Time = 60

smoothSolver:  Solving for Ux, Initial residual = 0.0155128, Final residual = 0.00113447, No Iterations 6
smoothSolver:  Solving for Uy, Initial residual = 0.00903346, Final residual = 0.000684406, No Iterations 6
GAMG:  Solving for p, Initial residual = 0.00789081, Final residual = 0.000750932, No Iterations 2
time step continuity errors : sum local = 0.00189206, global = 0.000174528, cumulative = 0.0103482
smoothSolver:  Solving for omega, Initial residual = 0.00122423, Final residual = 0.000103706, No Iterations 5
smoothSolver:  Solving for k, Initial residual = 0.0162283, Final residual = 0.00130236, No Iterations 6
ExecutionTime = 0.8 s  ClockTime = 1 s

scalarTransport execute: age
smoothSolver:  Solving for age, Initial residual = 0.0170875, Final residual = 0.00156082, No Iterations 13

Time = 61

smoothSolver:  Solving for Ux, Initial residual = 0.0153324, Final residual = 0.0011206, No Iterations 6
smoothSolver:  Solving for Uy, Initial residual = 0.00908756, Final residual = 0.000689951, No Iterations 6
GAMG:  Solving for p, Initial residual = 0.00789861, Final residual = 0.000751252, No Iterations 2
time step continuity errors : sum local = 0.00188587, global = 0.000162892, cumulative = 0.010511
smoothSolver:  Solving for omega, Initial residual = 0.00119764, Final residual = 0.000100166, No Iterations 5
smoothSolver:  Solving for k, Initial residual = 0.0159057, Final residual = 0.00127456, No Iterations 6
ExecutionTime = 0.82 s  ClockTime = 1 s

scalarTransport execute: age
smoothSolver:  Solving for age, Initial residual = 0.017199, Final residual = 0.00156694, No Iterations 13

Time = 62

smoothSolver:  Solving for Ux, Initial residual = 0.0151882, Final residual = 0.00110797, No Iterations 6
smoothSolver:  Solving for Uy, Initial residual = 0.00911167, Final residual = 0.000693365, No Iterations 6
GAMG:  Solving for p, Initial residual = 0.0079027, Final residual = 0.000762429, No Iterations 2
time step continuity errors : sum local = 0.00190467, global = 0.000158124, cumulative = 0.0106692
smoothSolver:  Solving for omega, Initial residual = 0.00116773, Final residual = 9.68765e-05, No Iterations 5
smoothSolver:  Solving for k, Initial residual = 0.0155913, Final residual = 0.00124752, No Iterations 6
ExecutionTime = 0.83 s  ClockTime = 1 s

scalarTransport execute: age
smoothSolver:  Solving for age, Initial residual = 0.0172862, Final residual = 0.00159291, No Iterations 13

Time = 63

smoothSolver:  Solving for Ux, Initial residual = 0.0150457, Final residual = 0.00109539, No Iterations 6
smoothSolver:  Solving for Uy, Initial residual = 0.0091193, Final residual = 0.000695703, No Iterations 6
GAMG:  Solving for p, Initial residual = 0.00790117, Final residual = 0.000767531, No Iterations 2
time step continuity errors : sum local = 0.00190905, global = 0.000153709, cumulative = 0.0108229
smoothSolver:  Solving for omega, Initial residual = 0.00114173, Final residual = 9.37591e-05, No Iterations 5
smoothSolver:  Solving for k, Initial residual = 0.0152851, Final residual = 0.00122125, No Iterations 6
ExecutionTime = 0.84 s  ClockTime = 1 s

scalarTransport execute: age
smoothSolver:  Solving for age, Initial residual = 0.017302, Final residual = 0.00162779, No Iterations 13

Time = 64

smoothSolver:  Solving for Ux, Initial residual = 0.0149257, Final residual = 0.00108506, No Iterations 6
smoothSolver:  Solving for Uy, Initial residual = 0.00910923, Final residual = 0.000696666, No Iterations 6
GAMG:  Solving for p, Initial residual = 0.00788854, Final residual = 0.000761537, No Iterations 2
time step continuity errors : sum local = 0.00188584, global = 0.000144709, cumulative = 0.0109676
smoothSolver:  Solving for omega, Initial residual = 0.00111691, Final residual = 9.08742e-05, No Iterations 5
smoothSolver:  Solving for k, Initial residual = 0.0149879, Final residual = 0.00119569, No Iterations 6
ExecutionTime = 0.86 s  ClockTime = 1 s

scalarTransport execute: age
smoothSolver:  Solving for age, Initial residual = 0.0173277, Final residual = 0.00165839, No Iterations 13

Time = 65

smoothSolver:  Solving for Ux, Initial residual = 0.0148457, Final residual = 0.0010779, No Iterations 6
smoothSolver:  Solving for Uy, Initial residual = 0.00907259, Final residual = 0.000695547, No Iterations 6
GAMG:  Solving for p, Initial residual = 0.00788518, Final residual = 0.00076025, No Iterations 2
time step continuity errors : sum local = 0.00187407, global = 0.00014285, cumulative = 0.0111104
smoothSolver:  Solving for omega, Initial residual = 0.00109317, Final residual = 8.82051e-05, No Iterations 5
smoothSolver:  Solving for k, Initial residual = 0.0146972, Final residual = 0.00117075, No Iterations 6
ExecutionTime = 0.87 s  ClockTime = 1 s

scalarTransport execute: age
smoothSolver:  Solving for age, Initial residual = 0.0173791, Final residual = 0.00167652, No Iterations 13

Time = 66

smoothSolver:  Solving for Ux, Initial residual = 0.0147764, Final residual = 0.00107151, No Iterations 6
smoothSolver:  Solving for Uy, Initial residual = 0.00902655, Final residual = 0.000693258, No Iterations 6
GAMG:  Solving for p, Initial residual = 0.0079193, Final residual = 0.000755266, No Iterations 2
time step continuity errors : sum local = 0.0018542, global = 0.000141713, cumulative = 0.0112521
smoothSolver:  Solving for omega, Initial residual = 0.0010718, Final residual = 8.57049e-05, No Iterations 5
smoothSolver:  Solving for k, Initial residual = 0.0144116, Final residual = 0.00114636, No Iterations 6
ExecutionTime = 0.88 s  ClockTime = 1 s

scalarTransport execute: age
smoothSolver:  Solving for age, Initial residual = 0.0174102, Final residual = 0.00168781, No Iterations 13

Time = 67

smoothSolver:  Solving for Ux, Initial residual = 0.0147118, Final residual = 0.00106608, No Iterations 6
smoothSolver:  Solving for Uy, Initial residual = 0.00895573, Final residual = 0.000689148, No Iterations 6
GAMG:  Solving for p, Initial residual = 0.0079533, Final residual = 0.000746968, No Iterations 2
time step continuity errors : sum local = 0.00182551, global = 0.000141072, cumulative = 0.0113932
smoothSolver:  Solving for omega, Initial residual = 0.00104862, Final residual = 8.33043e-05, No Iterations 5
smoothSolver:  Solving for k, Initial residual = 0.0141318, Final residual = 0.00112246, No Iterations 6
ExecutionTime = 0.89 s  ClockTime = 1 s

scalarTransport execute: age
smoothSolver:  Solving for age, Initial residual = 0.0174156, Final residual = 0.00171202, No Iterations 13

Time = 68

smoothSolver:  Solving for Ux, Initial residual = 0.0146514, Final residual = 0.00106097, No Iterations 6
smoothSolver:  Solving for Uy, Initial residual = 0.00886704, Final residual = 0.00068331, No Iterations 6
GAMG:  Solving for p, Initial residual = 0.00802166, Final residual = 0.000734554, No Iterations 2
time step continuity errors : sum local = 0.00178679, global = 0.000140427, cumulative = 0.0115336
smoothSolver:  Solving for omega, Initial residual = 0.00102914, Final residual = 8.11918e-05, No Iterations 5
smoothSolver:  Solving for k, Initial residual = 0.0138566, Final residual = 0.00109899, No Iterations 6
ExecutionTime = 0.91 s  ClockTime = 1 s

scalarTransport execute: age
smoothSolver:  Solving for age, Initial residual = 0.0173465, Final residual = 0.00152534, No Iterations 14

Time = 69

smoothSolver:  Solving for Ux, Initial residual = 0.0145929, Final residual = 0.00105563, No Iterations 6
smoothSolver:  Solving for Uy, Initial residual = 0.00876043, Final residual = 0.000676011, No Iterations 6
GAMG:  Solving for p, Initial residual = 0.00809166, Final residual = 0.000720585, No Iterations 2
time step continuity errors : sum local = 0.00174363, global = 0.000139256, cumulative = 0.0116729
smoothSolver:  Solving for omega, Initial residual = 0.00101053, Final residual = 7.92344e-05, No Iterations 5
smoothSolver:  Solving for k, Initial residual = 0.0135851, Final residual = 0.00107596, No Iterations 6
ExecutionTime = 0.92 s  ClockTime = 1 s

scalarTransport execute: age
smoothSolver:  Solving for age, Initial residual = 0.0172738, Final residual = 0.00154456, No Iterations 14

Time = 70

smoothSolver:  Solving for Ux, Initial residual = 0.014524, Final residual = 0.0010497, No Iterations 6
smoothSolver:  Solving for Uy, Initial residual = 0.00863877, Final residual = 0.000667555, No Iterations 6
GAMG:  Solving for p, Initial residual = 0.00816425, Final residual = 0.000706243, No Iterations 2
time step continuity errors : sum local = 0.00170004, global = 0.000136488, cumulative = 0.0118094
smoothSolver:  Solving for omega, Initial residual = 0.000991691, Final residual = 7.733e-05, No Iterations 5
smoothSolver:  Solving for k, Initial residual = 0.0133182, Final residual = 0.00105328, No Iterations 6
ExecutionTime = 0.93 s  ClockTime = 1 s

scalarTransport execute: age
smoothSolver:  Solving for age, Initial residual = 0.0171205, Final residual = 0.00154268, No Iterations 14

Time = 71

smoothSolver:  Solving for Ux, Initial residual = 0.0144431, Final residual = 0.00104324, No Iterations 6
smoothSolver:  Solving for Uy, Initial residual = 0.00850644, Final residual = 0.000657954, No Iterations 6
GAMG:  Solving for p, Initial residual = 0.00823476, Final residual = 0.000690578, No Iterations 2
time step continuity errors : sum local = 0.00165359, global = 0.000132771, cumulative = 0.0119422
smoothSolver:  Solving for omega, Initial residual = 0.000973752, Final residual = 7.55189e-05, No Iterations 5
smoothSolver:  Solving for k, Initial residual = 0.0130539, Final residual = 0.00103086, No Iterations 6
ExecutionTime = 0.95 s  ClockTime = 1 s

scalarTransport execute: age
smoothSolver:  Solving for age, Initial residual = 0.0168085, Final residual = 0.00155157, No Iterations 14

Time = 72

smoothSolver:  Solving for Ux, Initial residual = 0.0143384, Final residual = 0.00103524, No Iterations 6
smoothSolver:  Solving for Uy, Initial residual = 0.00836525, Final residual = 0.000647508, No Iterations 6
GAMG:  Solving for p, Initial residual = 0.00827506, Final residual = 0.000677902, No Iterations 2
time step continuity errors : sum local = 0.00161509, global = 0.000128028, cumulative = 0.0120702
smoothSolver:  Solving for omega, Initial residual = 0.000954884, Final residual = 7.37706e-05, No Iterations 5
smoothSolver:  Solving for k, Initial residual = 0.012793, Final residual = 0.00100874, No Iterations 6
ExecutionTime = 0.96 s  ClockTime = 1 s

scalarTransport execute: age
smoothSolver:  Solving for age, Initial residual = 0.0165844, Final residual = 0.00156139, No Iterations 14

Time = 73

smoothSolver:  Solving for Ux, Initial residual = 0.0142117, Final residual = 0.00102555, No Iterations 6
smoothSolver:  Solving for Uy, Initial residual = 0.00821381, Final residual = 0.000636153, No Iterations 6
GAMG:  Solving for p, Initial residual = 0.00830296, Final residual = 0.000667663, No Iterations 2
time step continuity errors : sum local = 0.00158302, global = 0.000122436, cumulative = 0.0121926
smoothSolver:  Solving for omega, Initial residual = 0.000935281, Final residual = 7.19953e-05, No Iterations 5
smoothSolver:  Solving for k, Initial residual = 0.0125352, Final residual = 0.000986891, No Iterations 6
ExecutionTime = 0.97 s  ClockTime = 1 s

scalarTransport execute: age
smoothSolver:  Solving for age, Initial residual = 0.0163019, Final residual = 0.00156005, No Iterations 14

Time = 74

smoothSolver:  Solving for Ux, Initial residual = 0.0140626, Final residual = 0.00101419, No Iterations 6
smoothSolver:  Solving for Uy, Initial residual = 0.00805589, Final residual = 0.000623945, No Iterations 6
GAMG:  Solving for p, Initial residual = 0.00831287, Final residual = 0.000657013, No Iterations 2
time step continuity errors : sum local = 0.00155083, global = 0.000116334, cumulative = 0.012309
smoothSolver:  Solving for omega, Initial residual = 0.000917262, Final residual = 7.04496e-05, No Iterations 5
smoothSolver:  Solving for k, Initial residual = 0.0122803, Final residual = 0.000965232, No Iterations 6
ExecutionTime = 0.99 s  ClockTime = 1 s

scalarTransport execute: age
smoothSolver:  Solving for age, Initial residual = 0.0160301, Final residual = 0.00154872, No Iterations 14

Time = 75

smoothSolver:  Solving for Ux, Initial residual = 0.0138885, Final residual = 0.00100123, No Iterations 6
smoothSolver:  Solving for Uy, Initial residual = 0.00788937, Final residual = 0.000611031, No Iterations 6
GAMG:  Solving for p, Initial residual = 0.00832837, Final residual = 0.000647153, No Iterations 2
time step continuity errors : sum local = 0.00152104, global = 0.000110318, cumulative = 0.0124193
smoothSolver:  Solving for omega, Initial residual = 0.000899117, Final residual = 6.8965e-05, No Iterations 5
smoothSolver:  Solving for k, Initial residual = 0.0120293, Final residual = 0.000943773, No Iterations 6
ExecutionTime = 1 s  ClockTime = 1 s

scalarTransport execute: age
smoothSolver:  Solving for age, Initial residual = 0.0156335, Final residual = 0.00154138, No Iterations 14

Time = 76

smoothSolver:  Solving for Ux, Initial residual = 0.0136897, Final residual = 0.000986594, No Iterations 6
smoothSolver:  Solving for Uy, Initial residual = 0.00771955, Final residual = 0.000597437, No Iterations 6
GAMG:  Solving for p, Initial residual = 0.0083281, Final residual = 0.000638628, No Iterations 2
time step continuity errors : sum local = 0.00149441, global = 0.00010493, cumulative = 0.0125242
smoothSolver:  Solving for omega, Initial residual = 0.000881499, Final residual = 6.7462e-05, No Iterations 5
smoothSolver:  Solving for k, Initial residual = 0.0117809, Final residual = 0.00092247, No Iterations 6
ExecutionTime = 1.01 s  ClockTime = 1 s

scalarTransport execute: age
smoothSolver:  Solving for age, Initial residual = 0.0151565, Final residual = 0.00133421, No Iterations 15

Time = 77

smoothSolver:  Solving for Ux, Initial residual = 0.013467, Final residual = 0.000970323, No Iterations 6
smoothSolver:  Solving for Uy, Initial residual = 0.00754661, Final residual = 0.000583233, No Iterations 6
GAMG:  Solving for p, Initial residual = 0.00829999, Final residual = 0.000631109, No Iterations 2
time step continuity errors : sum local = 0.00147033, global = 0.000100361, cumulative = 0.0126246
smoothSolver:  Solving for omega, Initial residual = 0.00086419, Final residual = 6.59549e-05, No Iterations 5
smoothSolver:  Solving for k, Initial residual = 0.0115347, Final residual = 0.000901312, No Iterations 6
ExecutionTime = 1.03 s  ClockTime = 1 s

scalarTransport execute: age
smoothSolver:  Solving for age, Initial residual = 0.0146442, Final residual = 0.00129983, No Iterations 15

Time = 78

smoothSolver:  Solving for Ux, Initial residual = 0.0132222, Final residual = 0.000952406, No Iterations 6
smoothSolver:  Solving for Uy, Initial residual = 0.00736855, Final residual = 0.000568462, No Iterations 6
GAMG:  Solving for p, Initial residual = 0.00824467, Final residual = 0.000624126, No Iterations 2
time step continuity errors : sum local = 0.0014478, global = 9.69009e-05, cumulative = 0.0127215
smoothSolver:  Solving for omega, Initial residual = 0.000847425, Final residual = 6.44274e-05, No Iterations 5
smoothSolver:  Solving for k, Initial residual = 0.0112903, Final residual = 0.0008803, No Iterations 6
ExecutionTime = 1.04 s  ClockTime = 1 s

scalarTransport execute: age
smoothSolver:  Solving for age, Initial residual = 0.0140346, Final residual = 0.00125076, No Iterations 15

Time = 79

smoothSolver:  Solving for Ux, Initial residual = 0.0129573, Final residual = 0.000933053, No Iterations 6
smoothSolver:  Solving for Uy, Initial residual = 0.00718622, Final residual = 0.00055317, No Iterations 6
GAMG:  Solving for p, Initial residual = 0.00815638, Final residual = 0.000617053, No Iterations 2
time step continuity errors : sum local = 0.00142549, global = 9.4739e-05, cumulative = 0.0128162
smoothSolver:  Solving for omega, Initial residual = 0.000831122, Final residual = 6.28875e-05, No Iterations 5
smoothSolver:  Solving for k, Initial residual = 0.0110469, Final residual = 0.0008594, No Iterations 6
ExecutionTime = 1.06 s  ClockTime = 1 s

scalarTransport execute: age
smoothSolver:  Solving for age, Initial residual = 0.0134035, Final residual = 0.00119541, No Iterations 15

Time = 80

smoothSolver:  Solving for Ux, Initial residual = 0.0126733, Final residual = 0.00091239, No Iterations 6
smoothSolver:  Solving for Uy, Initial residual = 0.00699821, Final residual = 0.000537421, No Iterations 6
GAMG:  Solving for p, Initial residual = 0.00802868, Final residual = 0.00060881, No Iterations 2
time step continuity errors : sum local = 0.00140081, global = 9.39481e-05, cumulative = 0.0129102
smoothSolver:  Solving for omega, Initial residual = 0.000814273, Final residual = 6.13757e-05, No Iterations 5
smoothSolver:  Solving for k, Initial residual = 0.0108045, Final residual = 0.000838578, No Iterations 6
ExecutionTime = 1.07 s  ClockTime = 1 s

scalarTransport execute: age
smoothSolver:  Solving for age, Initial residual = 0.0127732, Final residual = 0.00113146, No Iterations 15

Time = 81

smoothSolver:  Solving for Ux, Initial residual = 0.0123686, Final residual = 0.000890333, No Iterations 6
smoothSolver:  Solving for Uy, Initial residual = 0.00680951, Final residual = 0.000521267, No Iterations 6
GAMG:  Solving for p, Initial residual = 0.00788103, Final residual = 0.000598449, No Iterations 2
time step continuity errors : sum local = 0.00137149, global = 9.44225e-05, cumulative = 0.0130046
smoothSolver:  Solving for omega, Initial residual = 0.000797052, Final residual = 5.98627e-05, No Iterations 5
smoothSolver:  Solving for k, Initial residual = 0.0105618, Final residual = 0.000817714, No Iterations 6
ExecutionTime = 1.08 s  ClockTime = 1 s

scalarTransport execute: age
smoothSolver:  Solving for age, Initial residual = 0.012184, Final residual = 0.00121271, No Iterations 14

Time = 82

smoothSolver:  Solving for Ux, Initial residual = 0.0120423, Final residual = 0.000866948, No Iterations 6
smoothSolver:  Solving for Uy, Initial residual = 0.00662145, Final residual = 0.00050472, No Iterations 6
GAMG:  Solving for p, Initial residual = 0.00771973, Final residual = 0.000587514, No Iterations 2
time step continuity errors : sum local = 0.00134093, global = 9.6257e-05, cumulative = 0.0131008
smoothSolver:  Solving for omega, Initial residual = 0.000786691, Final residual = 5.82171e-05, No Iterations 5
smoothSolver:  Solving for k, Initial residual = 0.010321, Final residual = 0.000796939, No Iterations 6
ExecutionTime = 1.1 s  ClockTime = 1 s

scalarTransport execute: age
smoothSolver:  Solving for age, Initial residual = 0.0116491, Final residual = 0.0011357, No Iterations 14

Time = 83

smoothSolver:  Solving for Ux, Initial residual = 0.0117033, Final residual = 0.000842515, No Iterations 6
smoothSolver:  Solving for Uy, Initial residual = 0.00643286, Final residual = 0.000487852, No Iterations 6
GAMG:  Solving for p, Initial residual = 0.00755055, Final residual = 0.000576128, No Iterations 2
time step continuity errors : sum local = 0.00130954, global = 9.91272e-05, cumulative = 0.0132
smoothSolver:  Solving for omega, Initial residual = 0.000771188, Final residual = 5.66129e-05, No Iterations 5
smoothSolver:  Solving for k, Initial residual = 0.01008, Final residual = 0.000776177, No Iterations 6
ExecutionTime = 1.11 s  ClockTime = 1 s

scalarTransport execute: age
smoothSolver:  Solving for age, Initial residual = 0.0111699, Final residual = 0.00107034, No Iterations 14

Time = 84

smoothSolver:  Solving for Ux, Initial residual = 0.0113603, Final residual = 0.000817647, No Iterations 6
smoothSolver:  Solving for Uy, Initial residual = 0.00624638, Final residual = 0.000470648, No Iterations 6
GAMG:  Solving for p, Initial residual = 0.00737848, Final residual = 0.000565126, No Iterations 2
time step continuity errors : sum local = 0.00127973, global = 0.000102736, cumulative = 0.0133027
smoothSolver:  Solving for omega, Initial residual = 0.000754434, Final residual = 5.49886e-05, No Iterations 5
smoothSolver:  Solving for k, Initial residual = 0.00983925, Final residual = 0.000755454, No Iterations 6
ExecutionTime = 1.12 s  ClockTime = 2 s

scalarTransport execute: age
smoothSolver:  Solving for age, Initial residual = 0.0107366, Final residual = 0.00100435, No Iterations 14

Time = 85

smoothSolver:  Solving for Ux, Initial residual = 0.0110142, Final residual = 0.000792333, No Iterations 6
smoothSolver:  Solving for Uy, Initial residual = 0.00605784, Final residual = 0.000453273, No Iterations 6
GAMG:  Solving for p, Initial residual = 0.00719773, Final residual = 0.00055499, No Iterations 2
time step continuity errors : sum local = 0.00125227, global = 0.000106946, cumulative = 0.0134096
smoothSolver:  Solving for omega, Initial residual = 0.000739787, Final residual = 5.33835e-05, No Iterations 5
smoothSolver:  Solving for k, Initial residual = 0.00960063, Final residual = 0.000734833, No Iterations 6
ExecutionTime = 1.14 s  ClockTime = 2 s

scalarTransport execute: age
smoothSolver:  Solving for age, Initial residual = 0.0102735, Final residual = 0.000941402, No Iterations 14

Time = 86

smoothSolver:  Solving for Ux, Initial residual = 0.0106661, Final residual = 0.000766602, No Iterations 6
smoothSolver:  Solving for Uy, Initial residual = 0.00587115, Final residual = 0.000435702, No Iterations 6
GAMG:  Solving for p, Initial residual = 0.00704104, Final residual = 0.000545558, No Iterations 2
time step continuity errors : sum local = 0.0012265, global = 0.000111334, cumulative = 0.013521
smoothSolver:  Solving for omega, Initial residual = 0.000720145, Final residual = 5.16446e-05, No Iterations 5
smoothSolver:  Solving for k, Initial residual = 0.00936018, Final residual = 0.000714191, No Iterations 6
ExecutionTime = 1.15 s  ClockTime = 2 s

scalarTransport execute: age
smoothSolver:  Solving for age, Initial residual = 0.00981178, Final residual = 0.000887352, No Iterations 14

Time = 87

smoothSolver:  Solving for Ux, Initial residual = 0.0103168, Final residual = 0.000740632, No Iterations 6
smoothSolver:  Solving for Uy, Initial residual = 0.00568061, Final residual = 0.000418062, No Iterations 6
GAMG:  Solving for p, Initial residual = 0.0069272, Final residual = 0.000536299, No Iterations 2
time step continuity errors : sum local = 0.00120114, global = 0.000115622, cumulative = 0.0136366
smoothSolver:  Solving for omega, Initial residual = 0.000701891, Final residual = 4.98818e-05, No Iterations 5
smoothSolver:  Solving for k, Initial residual = 0.00912132, Final residual = 0.000693596, No Iterations 6
ExecutionTime = 1.16 s  ClockTime = 2 s

scalarTransport execute: age
smoothSolver:  Solving for age, Initial residual = 0.00939032, Final residual = 0.000841351, No Iterations 14

Time = 88

smoothSolver:  Solving for Ux, Initial residual = 0.00996792, Final residual = 0.000714752, No Iterations 6
smoothSolver:  Solving for Uy, Initial residual = 0.00548691, Final residual = 0.000400388, No Iterations 6
GAMG:  Solving for p, Initial residual = 0.00686247, Final residual = 0.000527726, No Iterations 2
time step continuity errors : sum local = 0.00117747, global = 0.000119546, cumulative = 0.0137561
smoothSolver:  Solving for omega, Initial residual = 0.000685068, Final residual = 4.81964e-05, No Iterations 5
smoothSolver:  Solving for k, Initial residual = 0.00888314, Final residual = 0.000672958, No Iterations 6
ExecutionTime = 1.18 s  ClockTime = 2 s

scalarTransport execute: age
smoothSolver:  Solving for age, Initial residual = 0.00895878, Final residual = 0.000806421, No Iterations 14

Time = 89

smoothSolver:  Solving for Ux, Initial residual = 0.00961433, Final residual = 0.000688531, No Iterations 6
smoothSolver:  Solving for Uy, Initial residual = 0.00528985, Final residual = 0.000382752, No Iterations 6
GAMG:  Solving for p, Initial residual = 0.00684954, Final residual = 0.000520317, No Iterations 2
time step continuity errors : sum local = 0.00115683, global = 0.000123077, cumulative = 0.0138792
smoothSolver:  Solving for omega, Initial residual = 0.000666218, Final residual = 4.63852e-05, No Iterations 5
smoothSolver:  Solving for k, Initial residual = 0.00864611, Final residual = 0.000652363, No Iterations 6
ExecutionTime = 1.19 s  ClockTime = 2 s

scalarTransport execute: age
smoothSolver:  Solving for age, Initial residual = 0.00856001, Final residual = 0.000785095, No Iterations 14

Time = 90

smoothSolver:  Solving for Ux, Initial residual = 0.00926948, Final residual = 0.000662401, No Iterations 6
smoothSolver:  Solving for Uy, Initial residual = 0.00509196, Final residual = 0.000365155, No Iterations 6
GAMG:  Solving for p, Initial residual = 0.00681665, Final residual = 0.00050869, No Iterations 2
time step continuity errors : sum local = 0.00112626, global = 0.000123294, cumulative = 0.0140025
smoothSolver:  Solving for omega, Initial residual = 0.000654568, Final residual = 4.4724e-05, No Iterations 5
smoothSolver:  Solving for k, Initial residual = 0.00840993, Final residual = 0.000631746, No Iterations 6
ExecutionTime = 1.2 s  ClockTime = 2 s

scalarTransport execute: age
smoothSolver:  Solving for age, Initial residual = 0.00820126, Final residual = 0.000767387, No Iterations 14

Time = 91

smoothSolver:  Solving for Ux, Initial residual = 0.00892615, Final residual = 0.00063638, No Iterations 6
smoothSolver:  Solving for Uy, Initial residual = 0.00489461, Final residual = 0.000347717, No Iterations 6
GAMG:  Solving for p, Initial residual = 0.0067992, Final residual = 0.000502874, No Iterations 2
time step continuity errors : sum local = 0.00110817, global = 0.000124329, cumulative = 0.0141268
smoothSolver:  Solving for omega, Initial residual = 0.000642142, Final residual = 4.32898e-05, No Iterations 5
smoothSolver:  Solving for k, Initial residual = 0.00817453, Final residual = 0.000611076, No Iterations 6
ExecutionTime = 1.22 s  ClockTime = 2 s

scalarTransport execute: age
smoothSolver:  Solving for age, Initial residual = 0.00787282, Final residual = 0.000751214, No Iterations 14

Time = 92

smoothSolver:  Solving for Ux, Initial residual = 0.00858547, Final residual = 0.000610052, No Iterations 6
smoothSolver:  Solving for Uy, Initial residual = 0.00470745, Final residual = 0.000330807, No Iterations 6
GAMG:  Solving for p, Initial residual = 0.00679731, Final residual = 0.00049789, No Iterations 2
time step continuity errors : sum local = 0.00109321, global = 0.000125214, cumulative = 0.0142521
smoothSolver:  Solving for omega, Initial residual = 0.000632647, Final residual = 4.1909e-05, No Iterations 5
smoothSolver:  Solving for k, Initial residual = 0.0079394, Final residual = 0.000590392, No Iterations 6
ExecutionTime = 1.23 s  ClockTime = 2 s

scalarTransport execute: age
smoothSolver:  Solving for age, Initial residual = 0.00755547, Final residual = 0.000734714, No Iterations 14

Time = 93

smoothSolver:  Solving for Ux, Initial residual = 0.00824453, Final residual = 0.000583952, No Iterations 6
smoothSolver:  Solving for Uy, Initial residual = 0.00453172, Final residual = 0.000314538, No Iterations 6
GAMG:  Solving for p, Initial residual = 0.00672995, Final residual = 0.00049347, No Iterations 2
time step continuity errors : sum local = 0.0010795, global = 0.000126914, cumulative = 0.014379
smoothSolver:  Solving for omega, Initial residual = 0.000623552, Final residual = 4.05544e-05, No Iterations 5
smoothSolver:  Solving for k, Initial residual = 0.00770499, Final residual = 0.000569698, No Iterations 6
ExecutionTime = 1.24 s  ClockTime = 2 s

scalarTransport execute: age
smoothSolver:  Solving for age, Initial residual = 0.00726473, Final residual = 0.000719829, No Iterations 14

Time = 94

smoothSolver:  Solving for Ux, Initial residual = 0.00790009, Final residual = 0.000557494, No Iterations 6
smoothSolver:  Solving for Uy, Initial residual = 0.00436768, Final residual = 0.000299305, No Iterations 6
GAMG:  Solving for p, Initial residual = 0.00661278, Final residual = 0.000486865, No Iterations 2
time step continuity errors : sum local = 0.00106109, global = 0.000128931, cumulative = 0.0145079
smoothSolver:  Solving for omega, Initial residual = 0.000615942, Final residual = 3.9235e-05, No Iterations 5
smoothSolver:  Solving for k, Initial residual = 0.00747095, Final residual = 0.00054905, No Iterations 6
ExecutionTime = 1.26 s  ClockTime = 2 s

scalarTransport execute: age
smoothSolver:  Solving for age, Initial residual = 0.00700538, Final residual = 0.000621218, No Iterations 15

Time = 95

smoothSolver:  Solving for Ux, Initial residual = 0.0075577, Final residual = 0.000531346, No Iterations 6
smoothSolver:  Solving for Uy, Initial residual = 0.00422168, Final residual = 0.000285657, No Iterations 6
GAMG:  Solving for p, Initial residual = 0.00651963, Final residual = 0.00047801, No Iterations 2
time step continuity errors : sum local = 0.00103862, global = 0.000130834, cumulative = 0.0146387
smoothSolver:  Solving for omega, Initial residual = 0.00060796, Final residual = 3.79412e-05, No Iterations 5
smoothSolver:  Solving for k, Initial residual = 0.00723753, Final residual = 0.000528465, No Iterations 6
ExecutionTime = 1.27 s  ClockTime = 2 s

scalarTransport execute: age
smoothSolver:  Solving for age, Initial residual = 0.00674665, Final residual = 0.000609599, No Iterations 15

Time = 96

smoothSolver:  Solving for Ux, Initial residual = 0.00721434, Final residual = 0.00050521, No Iterations 6
smoothSolver:  Solving for Uy, Initial residual = 0.00409904, Final residual = 0.000274132, No Iterations 6
[...]

Time = 572

smoothSolver:  Solving for Ux, Initial residual = 4.47677e-07, Final residual = 3.72776e-08, No Iterations 5
smoothSolver:  Solving for Uy, Initial residual = 2.85185e-07, Final residual = 2.25925e-08, No Iterations 5
GAMG:  Solving for p, Initial residual = 1.59487e-06, Final residual = 1.07335e-07, No Iterations 2
time step continuity errors : sum local = 2.16428e-07, global = 2.22356e-08, cumulative = 0.021142
smoothSolver:  Solving for omega, Initial residual = 5.35599e-08, Final residual = 9.25021e-09, No Iterations 3
smoothSolver:  Solving for k, Initial residual = 1.438e-07, Final residual = 1.23336e-08, No Iterations 5
ExecutionTime = 7.36 s  ClockTime = 8 s

scalarTransport execute: age
smoothSolver:  Solving for age, Initial residual = 0.000295623, Final residual = 2.75778e-05, No Iterations 15

Time = 573

smoothSolver:  Solving for Ux, Initial residual = 4.38281e-07, Final residual = 3.64927e-08, No Iterations 5
smoothSolver:  Solving for Uy, Initial residual = 2.7919e-07, Final residual = 2.2116e-08, No Iterations 5
GAMG:  Solving for p, Initial residual = 1.56172e-06, Final residual = 1.05099e-07, No Iterations 2
time step continuity errors : sum local = 2.11921e-07, global = 2.17684e-08, cumulative = 0.021142
smoothSolver:  Solving for omega, Initial residual = 5.26831e-08, Final residual = 9.11528e-09, No Iterations 3
smoothSolver:  Solving for k, Initial residual = 1.40716e-07, Final residual = 1.20662e-08, No Iterations 5
ExecutionTime = 7.38 s  ClockTime = 8 s

scalarTransport execute: age
smoothSolver:  Solving for age, Initial residual = 0.000294993, Final residual = 2.75194e-05, No Iterations 15

Time = 574

smoothSolver:  Solving for Ux, Initial residual = 4.29086e-07, Final residual = 3.5725e-08, No Iterations 5
smoothSolver:  Solving for Uy, Initial residual = 2.73305e-07, Final residual = 2.16487e-08, No Iterations 5
GAMG:  Solving for p, Initial residual = 1.52926e-06, Final residual = 1.02916e-07, No Iterations 2
time step continuity errors : sum local = 2.07519e-07, global = 2.13149e-08, cumulative = 0.021142
smoothSolver:  Solving for omega, Initial residual = 5.17889e-08, Final residual = 8.97562e-09, No Iterations 3
smoothSolver:  Solving for k, Initial residual = 1.37686e-07, Final residual = 1.18042e-08, No Iterations 5
ExecutionTime = 7.39 s  ClockTime = 8 s

scalarTransport execute: age
smoothSolver:  Solving for age, Initial residual = 0.000294367, Final residual = 2.74611e-05, No Iterations 15

Time = 575

smoothSolver:  Solving for Ux, Initial residual = 4.2009e-07, Final residual = 3.49741e-08, No Iterations 5
smoothSolver:  Solving for Uy, Initial residual = 2.67534e-07, Final residual = 2.11905e-08, No Iterations 5
GAMG:  Solving for p, Initial residual = 1.49747e-06, Final residual = 1.00781e-07, No Iterations 2
time step continuity errors : sum local = 2.03214e-07, global = 2.08748e-08, cumulative = 0.0211421
smoothSolver:  Solving for omega, Initial residual = 5.08851e-08, Final residual = 8.83255e-09, No Iterations 3
smoothSolver:  Solving for k, Initial residual = 1.34711e-07, Final residual = 1.15477e-08, No Iterations 5
ExecutionTime = 7.4 s  ClockTime = 8 s

scalarTransport execute: age
smoothSolver:  Solving for age, Initial residual = 0.000293742, Final residual = 2.74031e-05, No Iterations 15

Time = 576

smoothSolver:  Solving for Ux, Initial residual = 4.11288e-07, Final residual = 3.42397e-08, No Iterations 5
smoothSolver:  Solving for Uy, Initial residual = 2.6188e-07, Final residual = 2.07416e-08, No Iterations 5
GAMG:  Solving for p, Initial residual = 1.46635e-06, Final residual = 9.86915e-08, No Iterations 2
time step continuity errors : sum local = 1.99001e-07, global = 2.04472e-08, cumulative = 0.0211421
smoothSolver:  Solving for omega, Initial residual = 4.99771e-08, Final residual = 8.68711e-09, No Iterations 3
smoothSolver:  Solving for k, Initial residual = 1.31796e-07, Final residual = 1.12969e-08, No Iterations 5
ExecutionTime = 7.41 s  ClockTime = 8 s

scalarTransport execute: age
smoothSolver:  Solving for age, Initial residual = 0.000293119, Final residual = 2.73453e-05, No Iterations 15

Time = 577

smoothSolver:  Solving for Ux, Initial residual = 4.02677e-07, Final residual = 3.35215e-08, No Iterations 5
smoothSolver:  Solving for Uy, Initial residual = 2.56348e-07, Final residual = 2.03022e-08, No Iterations 5
GAMG:  Solving for p, Initial residual = 1.43588e-06, Final residual = 9.66458e-08, No Iterations 2
time step continuity errors : sum local = 1.94876e-07, global = 2.0031e-08, cumulative = 0.0211421
smoothSolver:  Solving for omega, Initial residual = 4.90689e-08, Final residual = 8.54011e-09, No Iterations 3
smoothSolver:  Solving for k, Initial residual = 1.28941e-07, Final residual = 1.10519e-08, No Iterations 5
ExecutionTime = 7.43 s  ClockTime = 8 s

scalarTransport execute: age
smoothSolver:  Solving for age, Initial residual = 0.000292499, Final residual = 2.72878e-05, No Iterations 15

Time = 578

smoothSolver:  Solving for Ux, Initial residual = 3.94255e-07, Final residual = 3.28193e-08, No Iterations 5
smoothSolver:  Solving for Uy, Initial residual = 2.5094e-07, Final residual = 1.98722e-08, No Iterations 5
GAMG:  Solving for p, Initial residual = 1.40605e-06, Final residual = 9.46427e-08, No Iterations 2
time step continuity errors : sum local = 1.90837e-07, global = 1.96251e-08, cumulative = 0.0211421
smoothSolver:  Solving for omega, Initial residual = 4.81634e-08, Final residual = 8.39219e-09, No Iterations 3
smoothSolver:  Solving for k, Initial residual = 1.26149e-07, Final residual = 1.08127e-08, No Iterations 5
ExecutionTime = 7.44 s  ClockTime = 8 s

scalarTransport execute: age
smoothSolver:  Solving for age, Initial residual = 0.00029188, Final residual = 2.72305e-05, No Iterations 15

Time = 579

smoothSolver:  Solving for Ux, Initial residual = 3.86018e-07, Final residual = 3.21325e-08, No Iterations 5
smoothSolver:  Solving for Uy, Initial residual = 2.45655e-07, Final residual = 1.94517e-08, No Iterations 5
GAMG:  Solving for p, Initial residual = 1.37686e-06, Final residual = 9.26815e-08, No Iterations 2
time step continuity errors : sum local = 1.86882e-07, global = 1.92283e-08, cumulative = 0.0211421
smoothSolver:  Solving for omega, Initial residual = 4.72627e-08, Final residual = 8.24389e-09, No Iterations 3
smoothSolver:  Solving for k, Initial residual = 1.23421e-07, Final residual = 1.05795e-08, No Iterations 5
ExecutionTime = 7.45 s  ClockTime = 8 s

scalarTransport execute: age
smoothSolver:  Solving for age, Initial residual = 0.000291264, Final residual = 2.71734e-05, No Iterations 15

Time = 580

smoothSolver:  Solving for Ux, Initial residual = 3.77961e-07, Final residual = 3.14608e-08, No Iterations 5
smoothSolver:  Solving for Uy, Initial residual = 2.40491e-07, Final residual = 1.90405e-08, No Iterations 5
GAMG:  Solving for p, Initial residual = 1.34828e-06, Final residual = 9.07613e-08, No Iterations 2
time step continuity errors : sum local = 1.8301e-07, global = 1.88398e-08, cumulative = 0.0211422
smoothSolver:  Solving for omega, Initial residual = 4.63685e-08, Final residual = 8.09565e-09, No Iterations 3
smoothSolver:  Solving for k, Initial residual = 1.20758e-07, Final residual = 1.03521e-08, No Iterations 5
ExecutionTime = 7.47 s  ClockTime = 8 s

scalarTransport execute: age
smoothSolver:  Solving for age, Initial residual = 0.000290651, Final residual = 2.71166e-05, No Iterations 15

Time = 581

smoothSolver:  Solving for Ux, Initial residual = 3.70078e-07, Final residual = 3.08035e-08, No Iterations 5
smoothSolver:  Solving for Uy, Initial residual = 2.35444e-07, Final residual = 1.86385e-08, No Iterations 5
GAMG:  Solving for p, Initial residual = 1.32031e-06, Final residual = 8.88814e-08, No Iterations 2
time step continuity errors : sum local = 1.7922e-07, global = 1.84588e-08, cumulative = 0.0211422
smoothSolver:  Solving for omega, Initial residual = 4.54821e-08, Final residual = 7.94785e-09, No Iterations 3
smoothSolver:  Solving for k, Initial residual = 1.1816e-07, Final residual = 1.01305e-08, No Iterations 5
ExecutionTime = 7.48 s  ClockTime = 8 s

scalarTransport execute: age
smoothSolver:  Solving for age, Initial residual = 0.000290039, Final residual = 2.706e-05, No Iterations 15

Time = 582

smoothSolver:  Solving for Ux, Initial residual = 3.62363e-07, Final residual = 3.01602e-08, No Iterations 5
smoothSolver:  Solving for Uy, Initial residual = 2.3051e-07, Final residual = 1.82457e-08, No Iterations 5
GAMG:  Solving for p, Initial residual = 1.29293e-06, Final residual = 8.70411e-08, No Iterations 2
time step continuity errors : sum local = 1.75509e-07, global = 1.80852e-08, cumulative = 0.0211422
smoothSolver:  Solving for omega, Initial residual = 4.46046e-08, Final residual = 7.80081e-09, No Iterations 3
smoothSolver:  Solving for k, Initial residual = 1.15624e-07, Final residual = 9.9147e-09, No Iterations 5
ExecutionTime = 7.49 s  ClockTime = 8 s

scalarTransport execute: age
smoothSolver:  Solving for age, Initial residual = 0.000289431, Final residual = 2.70037e-05, No Iterations 15

Time = 583

smoothSolver:  Solving for Ux, Initial residual = 3.54811e-07, Final residual = 2.95304e-08, No Iterations 5
smoothSolver:  Solving for Uy, Initial residual = 2.25685e-07, Final residual = 1.78618e-08, No Iterations 5
GAMG:  Solving for p, Initial residual = 1.26613e-06, Final residual = 8.52392e-08, No Iterations 2
time step continuity errors : sum local = 1.71876e-07, global = 1.77186e-08, cumulative = 0.0211422
smoothSolver:  Solving for omega, Initial residual = 4.37371e-08, Final residual = 7.6548e-09, No Iterations 3
smoothSolver:  Solving for k, Initial residual = 1.13152e-07, Final residual = 9.70446e-09, No Iterations 5
ExecutionTime = 7.5 s  ClockTime = 8 s

scalarTransport execute: age
smoothSolver:  Solving for age, Initial residual = 0.000288825, Final residual = 2.69476e-05, No Iterations 15

Time = 584

smoothSolver:  Solving for Ux, Initial residual = 3.47415e-07, Final residual = 2.89136e-08, No Iterations 5
smoothSolver:  Solving for Uy, Initial residual = 2.20965e-07, Final residual = 1.74868e-08, No Iterations 5
GAMG:  Solving for p, Initial residual = 1.23989e-06, Final residual = 8.34746e-08, No Iterations 2
time step continuity errors : sum local = 1.68318e-07, global = 1.73589e-08, cumulative = 0.0211422
smoothSolver:  Solving for omega, Initial residual = 4.28803e-08, Final residual = 7.51006e-09, No Iterations 3
smoothSolver:  Solving for k, Initial residual = 1.10743e-07, Final residual = 9.49971e-09, No Iterations 5
ExecutionTime = 7.52 s  ClockTime = 8 s

scalarTransport execute: age
smoothSolver:  Solving for age, Initial residual = 0.000288222, Final residual = 2.68918e-05, No Iterations 15

Time = 585

smoothSolver:  Solving for Ux, Initial residual = 3.40171e-07, Final residual = 2.83096e-08, No Iterations 5
smoothSolver:  Solving for Uy, Initial residual = 2.16349e-07, Final residual = 1.71204e-08, No Iterations 5
GAMG:  Solving for p, Initial residual = 1.2142e-06, Final residual = 8.17462e-08, No Iterations 2
time step continuity errors : sum local = 1.64832e-07, global = 1.7006e-08, cumulative = 0.0211422
smoothSolver:  Solving for omega, Initial residual = 4.20351e-08, Final residual = 7.36675e-09, No Iterations 3
smoothSolver:  Solving for k, Initial residual = 1.08394e-07, Final residual = 9.30029e-09, No Iterations 5
ExecutionTime = 7.53 s  ClockTime = 8 s

scalarTransport execute: age
smoothSolver:  Solving for age, Initial residual = 0.000287621, Final residual = 2.68362e-05, No Iterations 15

Time = 586

smoothSolver:  Solving for Ux, Initial residual = 3.33076e-07, Final residual = 2.7718e-08, No Iterations 5
smoothSolver:  Solving for Uy, Initial residual = 2.11834e-07, Final residual = 1.67625e-08, No Iterations 5
GAMG:  Solving for p, Initial residual = 1.18906e-06, Final residual = 8.0053e-08, No Iterations 2
time step continuity errors : sum local = 1.61418e-07, global = 1.66598e-08, cumulative = 0.0211423
smoothSolver:  Solving for omega, Initial residual = 4.1202e-08, Final residual = 7.22506e-09, No Iterations 3
smoothSolver:  Solving for k, Initial residual = 1.06105e-07, Final residual = 9.10602e-09, No Iterations 5
ExecutionTime = 7.54 s  ClockTime = 8 s

scalarTransport execute: age
smoothSolver:  Solving for age, Initial residual = 0.000287023, Final residual = 2.67808e-05, No Iterations 15

Time = 587

smoothSolver:  Solving for Ux, Initial residual = 3.26128e-07, Final residual = 2.71388e-08, No Iterations 5
smoothSolver:  Solving for Uy, Initial residual = 2.07419e-07, Final residual = 1.64129e-08, No Iterations 5
GAMG:  Solving for p, Initial residual = 1.16445e-06, Final residual = 7.83944e-08, No Iterations 2
time step continuity errors : sum local = 1.58074e-07, global = 1.63202e-08, cumulative = 0.0211423
smoothSolver:  Solving for omega, Initial residual = 4.03818e-08, Final residual = 7.08509e-09, No Iterations 3
smoothSolver:  Solving for k, Initial residual = 1.03874e-07, Final residual = 8.91677e-09, No Iterations 5
ExecutionTime = 7.55 s  ClockTime = 8 s

scalarTransport execute: age
smoothSolver:  Solving for age, Initial residual = 0.000286427, Final residual = 2.67257e-05, No Iterations 15

Time = 588

smoothSolver:  Solving for Ux, Initial residual = 3.19325e-07, Final residual = 2.65716e-08, No Iterations 5
smoothSolver:  Solving for Uy, Initial residual = 2.03103e-07, Final residual = 1.60714e-08, No Iterations 5
GAMG:  Solving for p, Initial residual = 1.14037e-06, Final residual = 7.67699e-08, No Iterations 2
time step continuity errors : sum local = 1.54798e-07, global = 1.59872e-08, cumulative = 0.0211423
smoothSolver:  Solving for omega, Initial residual = 3.95747e-08, Final residual = 6.94694e-09, No Iterations 3
smoothSolver:  Solving for k, Initial residual = 1.01699e-07, Final residual = 8.73232e-09, No Iterations 5
ExecutionTime = 7.57 s  ClockTime = 8 s

scalarTransport execute: age
smoothSolver:  Solving for age, Initial residual = 0.000285833, Final residual = 2.66708e-05, No Iterations 15

Time = 589

smoothSolver:  Solving for Ux, Initial residual = 3.12665e-07, Final residual = 2.60165e-08, No Iterations 5
smoothSolver:  Solving for Uy, Initial residual = 1.98885e-07, Final residual = 1.57378e-08, No Iterations 5
GAMG:  Solving for p, Initial residual = 1.1168e-06, Final residual = 7.51791e-08, No Iterations 2
time step continuity errors : sum local = 1.51591e-07, global = 1.56605e-08, cumulative = 0.0211423
smoothSolver:  Solving for omega, Initial residual = 3.87812e-08, Final residual = 6.81068e-09, No Iterations 3
smoothSolver:  Solving for k, Initial residual = 9.95789e-08, Final residual = 8.55257e-09, No Iterations 5
ExecutionTime = 7.58 s  ClockTime = 8 s

scalarTransport execute: age
smoothSolver:  Solving for age, Initial residual = 0.000285242, Final residual = 2.66162e-05, No Iterations 15

Time = 590

smoothSolver:  Solving for Ux, Initial residual = 3.06147e-07, Final residual = 2.54733e-08, No Iterations 5
smoothSolver:  Solving for Uy, Initial residual = 1.94765e-07, Final residual = 1.54119e-08, No Iterations 5
GAMG:  Solving for p, Initial residual = 1.09375e-06, Final residual = 7.36217e-08, No Iterations 2
time step continuity errors : sum local = 1.48451e-07, global = 1.53401e-08, cumulative = 0.0211423
smoothSolver:  Solving for omega, Initial residual = 3.80013e-08, Final residual = 6.67639e-09, No Iterations 3
smoothSolver:  Solving for k, Initial residual = 9.75116e-08, Final residual = 8.37732e-09, No Iterations 5
ExecutionTime = 7.59 s  ClockTime = 8 s

scalarTransport execute: age
smoothSolver:  Solving for age, Initial residual = 0.000284652, Final residual = 2.65618e-05, No Iterations 15

Time = 591

smoothSolver:  Solving for Ux, Initial residual = 2.9977e-07, Final residual = 2.49417e-08, No Iterations 5
smoothSolver:  Solving for Uy, Initial residual = 1.90739e-07, Final residual = 1.50936e-08, No Iterations 5
GAMG:  Solving for p, Initial residual = 1.07121e-06, Final residual = 7.20974e-08, No Iterations 2
time step continuity errors : sum local = 1.45377e-07, global = 1.5026e-08, cumulative = 0.0211423
smoothSolver:  Solving for omega, Initial residual = 3.72352e-08, Final residual = 6.54411e-09, No Iterations 3
smoothSolver:  Solving for k, Initial residual = 9.54954e-08, Final residual = 8.20638e-09, No Iterations 5
ExecutionTime = 7.6 s  ClockTime = 8 s

scalarTransport execute: age
smoothSolver:  Solving for age, Initial residual = 0.000284064, Final residual = 2.65076e-05, No Iterations 15

Time = 592

smoothSolver:  Solving for Ux, Initial residual = 2.93531e-07, Final residual = 2.44216e-08, No Iterations 5
smoothSolver:  Solving for Uy, Initial residual = 1.86806e-07, Final residual = 1.47825e-08, No Iterations 5
GAMG:  Solving for p, Initial residual = 1.04915e-06, Final residual = 7.06057e-08, No Iterations 2
time step continuity errors : sum local = 1.42369e-07, global = 1.47179e-08, cumulative = 0.0211424
smoothSolver:  Solving for omega, Initial residual = 3.64827e-08, Final residual = 6.41389e-09, No Iterations 3
smoothSolver:  Solving for k, Initial residual = 9.35283e-08, Final residual = 8.03963e-09, No Iterations 5
ExecutionTime = 7.62 s  ClockTime = 8 s

scalarTransport execute: age
smoothSolver:  Solving for age, Initial residual = 0.000283476, Final residual = 2.64536e-05, No Iterations 15

Time = 593

smoothSolver:  Solving for Ux, Initial residual = 2.87429e-07, Final residual = 2.39129e-08, No Iterations 5
smoothSolver:  Solving for Uy, Initial residual = 1.82962e-07, Final residual = 1.44786e-08, No Iterations 5
GAMG:  Solving for p, Initial residual = 1.02758e-06, Final residual = 6.91458e-08, No Iterations 2
time step continuity errors : sum local = 1.39425e-07, global = 1.44159e-08, cumulative = 0.0211424
smoothSolver:  Solving for omega, Initial residual = 3.57438e-08, Final residual = 6.28577e-09, No Iterations 3
smoothSolver:  Solving for k, Initial residual = 9.16086e-08, Final residual = 7.8769e-09, No Iterations 5
ExecutionTime = 7.63 s  ClockTime = 8 s

scalarTransport execute: age
smoothSolver:  Solving for age, Initial residual = 0.00028289, Final residual = 2.63999e-05, No Iterations 15

Time = 594

smoothSolver:  Solving for Ux, Initial residual = 2.8146e-07, Final residual = 2.34152e-08, No Iterations 5
smoothSolver:  Solving for Uy, Initial residual = 1.79205e-07, Final residual = 1.41816e-08, No Iterations 5
GAMG:  Solving for p, Initial residual = 1.00648e-06, Final residual = 6.77172e-08, No Iterations 2
time step continuity errors : sum local = 1.36545e-07, global = 1.41198e-08, cumulative = 0.0211424
smoothSolver:  Solving for omega, Initial residual = 3.50184e-08, Final residual = 6.15978e-09, No Iterations 3
smoothSolver:  Solving for k, Initial residual = 8.97342e-08, Final residual = 7.718e-09, No Iterations 5
ExecutionTime = 7.64 s  ClockTime = 8 s

scalarTransport execute: age
smoothSolver:  Solving for age, Initial residual = 0.000282308, Final residual = 2.63463e-05, No Iterations 15

Time = 595

smoothSolver:  Solving for Ux, Initial residual = 2.75622e-07, Final residual = 2.29283e-08, No Iterations 5
smoothSolver:  Solving for Uy, Initial residual = 1.7553e-07, Final residual = 1.38912e-08, No Iterations 5
GAMG:  Solving for p, Initial residual = 9.85821e-07, Final residual = 6.6319e-08, No Iterations 2
time step continuity errors : sum local = 1.33725e-07, global = 1.38296e-08, cumulative = 0.0211424
smoothSolver:  Solving for omega, Initial residual = 3.43062e-08, Final residual = 6.03594e-09, No Iterations 3
smoothSolver:  Solving for k, Initial residual = 8.79038e-08, Final residual = 7.56284e-09, No Iterations 5
ExecutionTime = 7.65 s  ClockTime = 8 s


SIMPLE solution converged in 595 iterations

scalarTransport execute: age
smoothSolver:  Solving for age, Initial residual = 0.000281729, Final residual = 2.6293e-05, No Iterations 15

End

