/*---------------------------------------------------------------------------*\
| =========                 |                                                 |
| \\      /  F ield         | OpenFOAM: The Open Source CFD Toolbox           |
|  \\    /   O peration     | Version:  v2012                                 |
|   \\  /    A nd           | Website:  www.openfoam.com                      |
|    \\/     M anipulation  |                                                 |
\*---------------------------------------------------------------------------*/
Build  : _7bdb509494-20201222 OPENFOAM=2012
Arch   : "LSB;label=32;scalar=64"
Exec   : simpleFoam
Date   : Feb 23 2023
Time   : 22:55:19
Host   : johnsDesktop
PID    : 17112
I/O    : uncollated
Case   : /home/john/of_runs/cases/dbl_0_46_7-00220_9
nProcs : 1
trapFpe: Floating point exception trapping enabled (FOAM_SIGFPE).
fileModificationChecking : Monitoring run-time modified files using timeStampMaster (fileModificationSkew 5, maxFileModificationPolls 20)
allowSystemOperations : Allowing user-supplied system call operations

// * * * * * * * * * * * * * * * * * * * * * * * * * * * * * * * * * * * * * //
Create time

Create mesh for time = 0


SIMPLE: convergence criteria
    field p	 tolerance 1e-06
    field U	 tolerance 1e-06
    field "(k|epsilon|omega|f|v2|age)"	 tolerance 1e-05

Reading field p

Reading field U

Reading/calculating face flux field phi

Selecting incompressible transport model Newtonian
Selecting turbulence model type RAS
Selecting RAS turbulence model kOmegaSST
Selecting patchDistMethod meshWave
RAS
{
    RASModel        kOmegaSST;
    turbulence      on;
    printCoeffs     on;
    alphaK1         0.85;
    alphaK2         1;
    alphaOmega1     0.5;
    alphaOmega2     0.856;
    gamma1          0.555556;
    gamma2          0.44;
    beta1           0.075;
    beta2           0.0828;
    betaStar        0.09;
    a1              0.31;
    b1              1;
    c1              10;
    F3              false;
    decayControl    false;
    kInf            0;
    omegaInf        0;
}

No MRF models present

No finite volume options present

Starting time loop

Selecting finite volume options type scalarSemiImplicitSource
    Source: unitySource
    - selecting all cells
    - selected 6532 cell(s) with volume 0.03154
Time = 1

smoothSolver:  Solving for Ux, Initial residual = 0, Final residual = 0, No Iterations 0
smoothSolver:  Solving for Uy, Initial residual = 1, Final residual = 0.0704686, No Iterations 2
GAMG:  Solving for p, Initial residual = 1, Final residual = 0.083601, No Iterations 6
time step continuity errors : sum local = 0.00530127, global = -0.000787212, cumulative = -0.000787212
smoothSolver:  Solving for omega, Initial residual = 0.257888, Final residual = 0.0120913, No Iterations 3
smoothSolver:  Solving for k, Initial residual = 1, Final residual = 0.0788308, No Iterations 3
ExecutionTime = 0.05 s  ClockTime = 1 s

scalarTransport execute: age
smoothSolver:  Solving for age, Initial residual = 1, Final residual = 0.0899156, No Iterations 6

Time = 2

smoothSolver:  Solving for Ux, Initial residual = 0.563059, Final residual = 0.0478579, No Iterations 6
smoothSolver:  Solving for Uy, Initial residual = 0.280445, Final residual = 0.0194313, No Iterations 6
GAMG:  Solving for p, Initial residual = 0.0515073, Final residual = 0.00434741, No Iterations 3
time step continuity errors : sum local = 0.0606873, global = 0.00457854, cumulative = 0.00379133
smoothSolver:  Solving for omega, Initial residual = 0.25986, Final residual = 0.0238135, No Iterations 3
smoothSolver:  Solving for k, Initial residual = 0.596784, Final residual = 0.054659, No Iterations 4
ExecutionTime = 0.07 s  ClockTime = 1 s

scalarTransport execute: age
smoothSolver:  Solving for age, Initial residual = 0.603724, Final residual = 0.0559138, No Iterations 8

Time = 3

smoothSolver:  Solving for Ux, Initial residual = 0.194646, Final residual = 0.0184319, No Iterations 5
smoothSolver:  Solving for Uy, Initial residual = 0.106073, Final residual = 0.00934411, No Iterations 5
GAMG:  Solving for p, Initial residual = 0.0544288, Final residual = 0.00352543, No Iterations 3
time step continuity errors : sum local = 0.0204409, global = 0.00315078, cumulative = 0.00694211
smoothSolver:  Solving for omega, Initial residual = 0.256517, Final residual = 0.0242605, No Iterations 4
smoothSolver:  Solving for k, Initial residual = 0.502073, Final residual = 0.0371364, No Iterations 5
ExecutionTime = 0.08 s  ClockTime = 1 s

scalarTransport execute: age
smoothSolver:  Solving for age, Initial residual = 0.40759, Final residual = 0.0360925, No Iterations 9

Time = 4

smoothSolver:  Solving for Ux, Initial residual = 0.0986652, Final residual = 0.00686076, No Iterations 5
smoothSolver:  Solving for Uy, Initial residual = 0.0514972, Final residual = 0.0050374, No Iterations 4
GAMG:  Solving for p, Initial residual = 0.0760358, Final residual = 0.00312563, No Iterations 3
time step continuity errors : sum local = 0.0101753, global = 0.000643385, cumulative = 0.0075855
smoothSolver:  Solving for omega, Initial residual = 0.144276, Final residual = 0.00973804, No Iterations 5
smoothSolver:  Solving for k, Initial residual = 0.425095, Final residual = 0.035476, No Iterations 5
ExecutionTime = 0.09 s  ClockTime = 1 s

scalarTransport execute: age
smoothSolver:  Solving for age, Initial residual = 0.296001, Final residual = 0.0275173, No Iterations 8

Time = 5

smoothSolver:  Solving for Ux, Initial residual = 0.0602993, Final residual = 0.00504184, No Iterations 5
smoothSolver:  Solving for Uy, Initial residual = 0.0326509, Final residual = 0.00228142, No Iterations 5
GAMG:  Solving for p, Initial residual = 0.0775662, Final residual = 0.00330155, No Iterations 2
time step continuity errors : sum local = 0.00861195, global = -0.000330205, cumulative = 0.00725529
smoothSolver:  Solving for omega, Initial residual = 0.100426, Final residual = 0.00742629, No Iterations 5
smoothSolver:  Solving for k, Initial residual = 0.33022, Final residual = 0.0298045, No Iterations 5
ExecutionTime = 0.1 s  ClockTime = 1 s

scalarTransport execute: age
smoothSolver:  Solving for age, Initial residual = 0.228889, Final residual = 0.0198659, No Iterations 9

Time = 6

smoothSolver:  Solving for Ux, Initial residual = 0.0418995, Final residual = 0.00277467, No Iterations 6
smoothSolver:  Solving for Uy, Initial residual = 0.0245324, Final residual = 0.00197758, No Iterations 5
GAMG:  Solving for p, Initial residual = 0.0626204, Final residual = 0.00290163, No Iterations 2
time step continuity errors : sum local = 0.00768774, global = -0.00106625, cumulative = 0.00618904
smoothSolver:  Solving for omega, Initial residual = 0.0787957, Final residual = 0.00624611, No Iterations 5
smoothSolver:  Solving for k, Initial residual = 0.265174, Final residual = 0.0254202, No Iterations 5
ExecutionTime = 0.12 s  ClockTime = 1 s

scalarTransport execute: age
smoothSolver:  Solving for age, Initial residual = 0.177512, Final residual = 0.0176274, No Iterations 9

Time = 7

smoothSolver:  Solving for Ux, Initial residual = 0.0348872, Final residual = 0.00231561, No Iterations 6
smoothSolver:  Solving for Uy, Initial residual = 0.020664, Final residual = 0.00177233, No Iterations 5
GAMG:  Solving for p, Initial residual = 0.0507213, Final residual = 0.0034346, No Iterations 2
time step continuity errors : sum local = 0.00925829, global = -0.00128083, cumulative = 0.00490821
smoothSolver:  Solving for omega, Initial residual = 0.0603289, Final residual = 0.00512802, No Iterations 5
smoothSolver:  Solving for k, Initial residual = 0.220195, Final residual = 0.0220107, No Iterations 5
ExecutionTime = 0.13 s  ClockTime = 1 s

scalarTransport execute: age
smoothSolver:  Solving for age, Initial residual = 0.142473, Final residual = 0.0135016, No Iterations 10

Time = 8

smoothSolver:  Solving for Ux, Initial residual = 0.0293588, Final residual = 0.00278993, No Iterations 5
smoothSolver:  Solving for Uy, Initial residual = 0.0182646, Final residual = 0.00162099, No Iterations 5
GAMG:  Solving for p, Initial residual = 0.0405195, Final residual = 0.00325021, No Iterations 2
time step continuity errors : sum local = 0.00916722, global = -0.000926568, cumulative = 0.00398164
smoothSolver:  Solving for omega, Initial residual = 0.0484339, Final residual = 0.00427387, No Iterations 5
smoothSolver:  Solving for k, Initial residual = 0.187729, Final residual = 0.0123237, No Iterations 6
ExecutionTime = 0.14 s  ClockTime = 1 s

scalarTransport execute: age
smoothSolver:  Solving for age, Initial residual = 0.121368, Final residual = 0.0104777, No Iterations 11

Time = 9

smoothSolver:  Solving for Ux, Initial residual = 0.0274927, Final residual = 0.00263901, No Iterations 5
smoothSolver:  Solving for Uy, Initial residual = 0.0168823, Final residual = 0.00146492, No Iterations 5
GAMG:  Solving for p, Initial residual = 0.0314037, Final residual = 0.00109484, No Iterations 2
time step continuity errors : sum local = 0.00330149, global = -0.000788334, cumulative = 0.0031933
smoothSolver:  Solving for omega, Initial residual = 0.0404483, Final residual = 0.00367058, No Iterations 5
smoothSolver:  Solving for k, Initial residual = 0.163386, Final residual = 0.0110545, No Iterations 6
ExecutionTime = 0.16 s  ClockTime = 1 s

scalarTransport execute: age
smoothSolver:  Solving for age, Initial residual = 0.105446, Final residual = 0.00932503, No Iterations 11

Time = 10

smoothSolver:  Solving for Ux, Initial residual = 0.0244077, Final residual = 0.00242705, No Iterations 5
smoothSolver:  Solving for Uy, Initial residual = 0.0154691, Final residual = 0.00142021, No Iterations 5
GAMG:  Solving for p, Initial residual = 0.0264791, Final residual = 0.000861581, No Iterations 2
time step continuity errors : sum local = 0.00264075, global = -0.000615512, cumulative = 0.00257779
smoothSolver:  Solving for omega, Initial residual = 0.0340271, Final residual = 0.00317357, No Iterations 5
smoothSolver:  Solving for k, Initial residual = 0.144351, Final residual = 0.0100121, No Iterations 6
ExecutionTime = 0.17 s  ClockTime = 1 s

scalarTransport execute: age
smoothSolver:  Solving for age, Initial residual = 0.0922754, Final residual = 0.00833757, No Iterations 11

Time = 11

smoothSolver:  Solving for Ux, Initial residual = 0.022966, Final residual = 0.00152718, No Iterations 6
smoothSolver:  Solving for Uy, Initial residual = 0.0146906, Final residual = 0.00138123, No Iterations 5
GAMG:  Solving for p, Initial residual = 0.0235848, Final residual = 0.000845491, No Iterations 2
time step continuity errors : sum local = 0.00262944, global = -0.000437829, cumulative = 0.00213996
smoothSolver:  Solving for omega, Initial residual = 0.0289279, Final residual = 0.00276044, No Iterations 5
smoothSolver:  Solving for k, Initial residual = 0.129153, Final residual = 0.00914094, No Iterations 6
ExecutionTime = 0.18 s  ClockTime = 1 s

scalarTransport execute: age
smoothSolver:  Solving for age, Initial residual = 0.0812026, Final residual = 0.00754845, No Iterations 11

Time = 12

smoothSolver:  Solving for Ux, Initial residual = 0.0216263, Final residual = 0.00145399, No Iterations 6
smoothSolver:  Solving for Uy, Initial residual = 0.0140703, Final residual = 0.00135313, No Iterations 5
GAMG:  Solving for p, Initial residual = 0.0217073, Final residual = 0.000853243, No Iterations 2
time step continuity errors : sum local = 0.00268082, global = -0.000268774, cumulative = 0.00187119
smoothSolver:  Solving for omega, Initial residual = 0.0249015, Final residual = 0.00241968, No Iterations 5
smoothSolver:  Solving for k, Initial residual = 0.116771, Final residual = 0.0084052, No Iterations 6
ExecutionTime = 0.19 s  ClockTime = 1 s

scalarTransport execute: age
smoothSolver:  Solving for age, Initial residual = 0.0715956, Final residual = 0.00689046, No Iterations 11

Time = 13

smoothSolver:  Solving for Ux, Initial residual = 0.0204241, Final residual = 0.00138202, No Iterations 6
smoothSolver:  Solving for Uy, Initial residual = 0.0135481, Final residual = 0.00132771, No Iterations 5
GAMG:  Solving for p, Initial residual = 0.0203961, Final residual = 0.000840282, No Iterations 2
time step continuity errors : sum local = 0.00265053, global = -0.000105311, cumulative = 0.00176588
smoothSolver:  Solving for omega, Initial residual = 0.021644, Final residual = 0.00213482, No Iterations 5
smoothSolver:  Solving for k, Initial residual = 0.106516, Final residual = 0.00777556, No Iterations 6
ExecutionTime = 0.21 s  ClockTime = 1 s

scalarTransport execute: age
smoothSolver:  Solving for age, Initial residual = 0.0627198, Final residual = 0.00532761, No Iterations 12

Time = 14

smoothSolver:  Solving for Ux, Initial residual = 0.0193261, Final residual = 0.0013111, No Iterations 6
smoothSolver:  Solving for Uy, Initial residual = 0.0131447, Final residual = 0.00130519, No Iterations 5
GAMG:  Solving for p, Initial residual = 0.0193717, Final residual = 0.00081775, No Iterations 2
time step continuity errors : sum local = 0.00258268, global = 5.11694e-05, cumulative = 0.00181705
smoothSolver:  Solving for omega, Initial residual = 0.0189965, Final residual = 0.00189539, No Iterations 5
smoothSolver:  Solving for k, Initial residual = 0.0978737, Final residual = 0.00723018, No Iterations 6
ExecutionTime = 0.22 s  ClockTime = 1 s

scalarTransport execute: age
smoothSolver:  Solving for age, Initial residual = 0.0542324, Final residual = 0.00476075, No Iterations 12

Time = 15

smoothSolver:  Solving for Ux, Initial residual = 0.0182749, Final residual = 0.00123906, No Iterations 6
smoothSolver:  Solving for Uy, Initial residual = 0.0128449, Final residual = 0.000840006, No Iterations 6
GAMG:  Solving for p, Initial residual = 0.0184628, Final residual = 0.00078555, No Iterations 2
time step continuity errors : sum local = 0.00247951, global = 0.00019314, cumulative = 0.00201019
smoothSolver:  Solving for omega, Initial residual = 0.0168106, Final residual = 0.00108311, No Iterations 6
smoothSolver:  Solving for k, Initial residual = 0.0903012, Final residual = 0.00674089, No Iterations 6
ExecutionTime = 0.24 s  ClockTime = 1 s

scalarTransport execute: age
smoothSolver:  Solving for age, Initial residual = 0.0469496, Final residual = 0.00423474, No Iterations 12

Time = 16

smoothSolver:  Solving for Ux, Initial residual = 0.0173292, Final residual = 0.00117227, No Iterations 6
smoothSolver:  Solving for Uy, Initial residual = 0.0125243, Final residual = 0.000823183, No Iterations 6
GAMG:  Solving for p, Initial residual = 0.0177451, Final residual = 0.000775186, No Iterations 2
time step continuity errors : sum local = 0.00243514, global = 0.000305773, cumulative = 0.00231596
smoothSolver:  Solving for omega, Initial residual = 0.0148497, Final residual = 0.000966882, No Iterations 6
smoothSolver:  Solving for k, Initial residual = 0.0836771, Final residual = 0.00630516, No Iterations 6
ExecutionTime = 0.25 s  ClockTime = 1 s

scalarTransport execute: age
smoothSolver:  Solving for age, Initial residual = 0.0408481, Final residual = 0.00375357, No Iterations 12

Time = 17

smoothSolver:  Solving for Ux, Initial residual = 0.0163989, Final residual = 0.00110644, No Iterations 6
smoothSolver:  Solving for Uy, Initial residual = 0.0122895, Final residual = 0.00080893, No Iterations 6
GAMG:  Solving for p, Initial residual = 0.017094, Final residual = 0.000794296, No Iterations 2
time step continuity errors : sum local = 0.00247609, global = 0.000376504, cumulative = 0.00269246
smoothSolver:  Solving for omega, Initial residual = 0.0132269, Final residual = 0.000868102, No Iterations 6
smoothSolver:  Solving for k, Initial residual = 0.0779572, Final residual = 0.00592045, No Iterations 6
ExecutionTime = 0.26 s  ClockTime = 1 s

scalarTransport execute: age
smoothSolver:  Solving for age, Initial residual = 0.0359259, Final residual = 0.00333081, No Iterations 12

Time = 18

smoothSolver:  Solving for Ux, Initial residual = 0.0155068, Final residual = 0.00104354, No Iterations 6
smoothSolver:  Solving for Uy, Initial residual = 0.0121126, Final residual = 0.000796794, No Iterations 6
GAMG:  Solving for p, Initial residual = 0.016569, Final residual = 0.000825923, No Iterations 2
time step continuity errors : sum local = 0.00254893, global = 0.000412574, cumulative = 0.00310504
smoothSolver:  Solving for omega, Initial residual = 0.0118672, Final residual = 0.00078351, No Iterations 6
smoothSolver:  Solving for k, Initial residual = 0.0729639, Final residual = 0.00557882, No Iterations 6
ExecutionTime = 0.28 s  ClockTime = 1 s

scalarTransport execute: age
smoothSolver:  Solving for age, Initial residual = 0.0317392, Final residual = 0.00296116, No Iterations 12

Time = 19

smoothSolver:  Solving for Ux, Initial residual = 0.0146742, Final residual = 0.000985998, No Iterations 6
smoothSolver:  Solving for Uy, Initial residual = 0.0119251, Final residual = 0.00078485, No Iterations 6
GAMG:  Solving for p, Initial residual = 0.0160826, Final residual = 0.000812003, No Iterations 2
time step continuity errors : sum local = 0.00247722, global = 0.000420353, cumulative = 0.00352539
smoothSolver:  Solving for omega, Initial residual = 0.0107149, Final residual = 0.00071053, No Iterations 6
smoothSolver:  Solving for k, Initial residual = 0.0685574, Final residual = 0.00527236, No Iterations 6
ExecutionTime = 0.29 s  ClockTime = 1 s

scalarTransport execute: age
smoothSolver:  Solving for age, Initial residual = 0.0283612, Final residual = 0.00263585, No Iterations 12

Time = 20

smoothSolver:  Solving for Ux, Initial residual = 0.013918, Final residual = 0.000935056, No Iterations 6
smoothSolver:  Solving for Uy, Initial residual = 0.0117386, Final residual = 0.000772607, No Iterations 6
GAMG:  Solving for p, Initial residual = 0.0156121, Final residual = 0.000773423, No Iterations 2
time step continuity errors : sum local = 0.00233063, global = 0.000410547, cumulative = 0.00393594
smoothSolver:  Solving for omega, Initial residual = 0.00972485, Final residual = 0.000647015, No Iterations 6
smoothSolver:  Solving for k, Initial residual = 0.0646354, Final residual = 0.00499586, No Iterations 6
ExecutionTime = 0.3 s  ClockTime = 1 s

scalarTransport execute: age
smoothSolver:  Solving for age, Initial residual = 0.0252792, Final residual = 0.00234372, No Iterations 12

Time = 21

smoothSolver:  Solving for Ux, Initial residual = 0.0132274, Final residual = 0.00088847, No Iterations 6
smoothSolver:  Solving for Uy, Initial residual = 0.0115315, Final residual = 0.000759791, No Iterations 6
GAMG:  Solving for p, Initial residual = 0.0151201, Final residual = 0.000731114, No Iterations 2
time step continuity errors : sum local = 0.00217689, global = 0.000393337, cumulative = 0.00432927
smoothSolver:  Solving for omega, Initial residual = 0.0088665, Final residual = 0.000591474, No Iterations 6
smoothSolver:  Solving for k, Initial residual = 0.0611152, Final residual = 0.00474445, No Iterations 6
ExecutionTime = 0.32 s  ClockTime = 1 s

scalarTransport execute: age
smoothSolver:  Solving for age, Initial residual = 0.022654, Final residual = 0.00207724, No Iterations 12

Time = 22

smoothSolver:  Solving for Ux, Initial residual = 0.0126068, Final residual = 0.000846143, No Iterations 6
smoothSolver:  Solving for Uy, Initial residual = 0.011305, Final residual = 0.000746412, No Iterations 6
GAMG:  Solving for p, Initial residual = 0.014559, Final residual = 0.000696285, No Iterations 2
time step continuity errors : sum local = 0.00205075, global = 0.000374399, cumulative = 0.00470367
smoothSolver:  Solving for omega, Initial residual = 0.00811986, Final residual = 0.000542625, No Iterations 6
smoothSolver:  Solving for k, Initial residual = 0.05794, Final residual = 0.004515, No Iterations 6
ExecutionTime = 0.33 s  ClockTime = 1 s

scalarTransport execute: age
smoothSolver:  Solving for age, Initial residual = 0.0202904, Final residual = 0.00182703, No Iterations 12

Time = 23

smoothSolver:  Solving for Ux, Initial residual = 0.0120452, Final residual = 0.000806599, No Iterations 6
smoothSolver:  Solving for Uy, Initial residual = 0.0110812, Final residual = 0.00073306, No Iterations 6
GAMG:  Solving for p, Initial residual = 0.0139105, Final residual = 0.000668394, No Iterations 2
time step continuity errors : sum local = 0.00194903, global = 0.000356337, cumulative = 0.00506001
smoothSolver:  Solving for omega, Initial residual = 0.00746475, Final residual = 0.00049938, No Iterations 6
smoothSolver:  Solving for k, Initial residual = 0.0550536, Final residual = 0.00430436, No Iterations 6
ExecutionTime = 0.34 s  ClockTime = 1 s

scalarTransport execute: age
smoothSolver:  Solving for age, Initial residual = 0.0183516, Final residual = 0.00159952, No Iterations 12

Time = 24

smoothSolver:  Solving for Ux, Initial residual = 0.0115237, Final residual = 0.000770861, No Iterations 6
smoothSolver:  Solving for Uy, Initial residual = 0.0108504, Final residual = 0.000719497, No Iterations 6
GAMG:  Solving for p, Initial residual = 0.0132062, Final residual = 0.000647172, No Iterations 2
time step continuity errors : sum local = 0.00186846, global = 0.000340474, cumulative = 0.00540048
smoothSolver:  Solving for omega, Initial residual = 0.00685737, Final residual = 0.000460346, No Iterations 6
smoothSolver:  Solving for k, Initial residual = 0.0524175, Final residual = 0.00411021, No Iterations 6
ExecutionTime = 0.35 s  ClockTime = 1 s

scalarTransport execute: age
smoothSolver:  Solving for age, Initial residual = 0.0166817, Final residual = 0.0016252, No Iterations 11

Time = 25

smoothSolver:  Solving for Ux, Initial residual = 0.0110411, Final residual = 0.000738485, No Iterations 6
smoothSolver:  Solving for Uy, Initial residual = 0.0106109, Final residual = 0.000705303, No Iterations 6
GAMG:  Solving for p, Initial residual = 0.0124874, Final residual = 0.000626067, No Iterations 2
time step continuity errors : sum local = 0.00179015, global = 0.000327022, cumulative = 0.0057275
smoothSolver:  Solving for omega, Initial residual = 0.00634063, Final residual = 0.000425801, No Iterations 6
smoothSolver:  Solving for k, Initial residual = 0.0499975, Final residual = 0.00393026, No Iterations 6
ExecutionTime = 0.37 s  ClockTime = 1 s

scalarTransport execute: age
smoothSolver:  Solving for age, Initial residual = 0.015223, Final residual = 0.00142599, No Iterations 11

Time = 26

smoothSolver:  Solving for Ux, Initial residual = 0.0106092, Final residual = 0.000709868, No Iterations 6
smoothSolver:  Solving for Uy, Initial residual = 0.0103683, Final residual = 0.000690114, No Iterations 6
GAMG:  Solving for p, Initial residual = 0.0118142, Final residual = 0.00060225, No Iterations 2
time step continuity errors : sum local = 0.00170644, global = 0.000315358, cumulative = 0.00604286
smoothSolver:  Solving for omega, Initial residual = 0.00588634, Final residual = 0.000395073, No Iterations 6
smoothSolver:  Solving for k, Initial residual = 0.0477594, Final residual = 0.00376242, No Iterations 6
ExecutionTime = 0.38 s  ClockTime = 1 s

scalarTransport execute: age
smoothSolver:  Solving for age, Initial residual = 0.0139746, Final residual = 0.00124347, No Iterations 11

Time = 27

smoothSolver:  Solving for Ux, Initial residual = 0.0102155, Final residual = 0.000684927, No Iterations 6
smoothSolver:  Solving for Uy, Initial residual = 0.0101289, Final residual = 0.000673337, No Iterations 6
GAMG:  Solving for p, Initial residual = 0.0113278, Final residual = 0.000577065, No Iterations 2
time step continuity errors : sum local = 0.00162128, global = 0.000305215, cumulative = 0.00634808
smoothSolver:  Solving for omega, Initial residual = 0.00547647, Final residual = 0.000367435, No Iterations 6
smoothSolver:  Solving for k, Initial residual = 0.04568, Final residual = 0.00360523, No Iterations 6
ExecutionTime = 0.39 s  ClockTime = 1 s

scalarTransport execute: age
smoothSolver:  Solving for age, Initial residual = 0.0129274, Final residual = 0.00109379, No Iterations 11

Time = 28

smoothSolver:  Solving for Ux, Initial residual = 0.00986476, Final residual = 0.000663138, No Iterations 6
smoothSolver:  Solving for Uy, Initial residual = 0.00988513, Final residual = 0.000655099, No Iterations 6
GAMG:  Solving for p, Initial residual = 0.0111789, Final residual = 0.000553221, No Iterations 2
time step continuity errors : sum local = 0.0015423, global = 0.000296585, cumulative = 0.00664466
smoothSolver:  Solving for omega, Initial residual = 0.00511212, Final residual = 0.000342561, No Iterations 6
smoothSolver:  Solving for k, Initial residual = 0.0437345, Final residual = 0.00345723, No Iterations 6
ExecutionTime = 0.41 s  ClockTime = 1 s

scalarTransport execute: age
smoothSolver:  Solving for age, Initial residual = 0.0120574, Final residual = 0.00116248, No Iterations 10

Time = 29

smoothSolver:  Solving for Ux, Initial residual = 0.00955821, Final residual = 0.000644652, No Iterations 6
smoothSolver:  Solving for Uy, Initial residual = 0.00962895, Final residual = 0.00063429, No Iterations 6
GAMG:  Solving for p, Initial residual = 0.0111889, Final residual = 0.000532742, No Iterations 2
time step continuity errors : sum local = 0.00147505, global = 0.000289658, cumulative = 0.00693432
smoothSolver:  Solving for omega, Initial residual = 0.00478794, Final residual = 0.000320125, No Iterations 6
smoothSolver:  Solving for k, Initial residual = 0.0419118, Final residual = 0.00331771, No Iterations 6
ExecutionTime = 0.42 s  ClockTime = 1 s

scalarTransport execute: age
smoothSolver:  Solving for age, Initial residual = 0.0113576, Final residual = 0.00107529, No Iterations 10

Time = 30

smoothSolver:  Solving for Ux, Initial residual = 0.00932035, Final residual = 0.000629314, No Iterations 6
smoothSolver:  Solving for Uy, Initial residual = 0.00935425, Final residual = 0.000612313, No Iterations 6
GAMG:  Solving for p, Initial residual = 0.0113186, Final residual = 0.000515592, No Iterations 2
time step continuity errors : sum local = 0.00142006, global = 0.000277584, cumulative = 0.0072119
smoothSolver:  Solving for omega, Initial residual = 0.00449754, Final residual = 0.000299794, No Iterations 6
smoothSolver:  Solving for k, Initial residual = 0.0401984, Final residual = 0.00318589, No Iterations 6
ExecutionTime = 0.43 s  ClockTime = 1 s

scalarTransport execute: age
smoothSolver:  Solving for age, Initial residual = 0.010879, Final residual = 0.00100981, No Iterations 10

Time = 31

smoothSolver:  Solving for Ux, Initial residual = 0.00915039, Final residual = 0.000617054, No Iterations 6
smoothSolver:  Solving for Uy, Initial residual = 0.00905812, Final residual = 0.0005888, No Iterations 6
GAMG:  Solving for p, Initial residual = 0.0112514, Final residual = 0.000520147, No Iterations 2
time step continuity errors : sum local = 0.00142017, global = 0.000266107, cumulative = 0.00747801
smoothSolver:  Solving for omega, Initial residual = 0.00423361, Final residual = 0.000281257, No Iterations 6
smoothSolver:  Solving for k, Initial residual = 0.0385757, Final residual = 0.00306061, No Iterations 6
ExecutionTime = 0.45 s  ClockTime = 1 s

scalarTransport execute: age
smoothSolver:  Solving for age, Initial residual = 0.0103193, Final residual = 0.000966313, No Iterations 10

Time = 32

smoothSolver:  Solving for Ux, Initial residual = 0.00902796, Final residual = 0.000607209, No Iterations 6
smoothSolver:  Solving for Uy, Initial residual = 0.00874077, Final residual = 0.000869528, No Iterations 5
GAMG:  Solving for p, Initial residual = 0.0111096, Final residual = 0.000521963, No Iterations 2
time step continuity errors : sum local = 0.00141663, global = 0.000254093, cumulative = 0.0077321
smoothSolver:  Solving for omega, Initial residual = 0.00399204, Final residual = 0.000264345, No Iterations 6
smoothSolver:  Solving for k, Initial residual = 0.0370387, Final residual = 0.00294158, No Iterations 6
ExecutionTime = 0.46 s  ClockTime = 1 s

scalarTransport execute: age
smoothSolver:  Solving for age, Initial residual = 0.00983131, Final residual = 0.000942376, No Iterations 10

Time = 33

smoothSolver:  Solving for Ux, Initial residual = 0.00890211, Final residual = 0.000596938, No Iterations 6
smoothSolver:  Solving for Uy, Initial residual = 0.008446, Final residual = 0.000837581, No Iterations 5
GAMG:  Solving for p, Initial residual = 0.0107509, Final residual = 0.000516972, No Iterations 2
time step continuity errors : sum local = 0.00139564, global = 0.000242891, cumulative = 0.007975
smoothSolver:  Solving for omega, Initial residual = 0.00377497, Final residual = 0.000248884, No Iterations 6
smoothSolver:  Solving for k, Initial residual = 0.0355768, Final residual = 0.00282822, No Iterations 6
ExecutionTime = 0.47 s  ClockTime = 1 s

scalarTransport execute: age
smoothSolver:  Solving for age, Initial residual = 0.00948149, Final residual = 0.000933951, No Iterations 10

Time = 34

smoothSolver:  Solving for Ux, Initial residual = 0.00882749, Final residual = 0.000590463, No Iterations 6
smoothSolver:  Solving for Uy, Initial residual = 0.0081125, Final residual = 0.000801506, No Iterations 5
GAMG:  Solving for p, Initial residual = 0.0104198, Final residual = 0.000503845, No Iterations 2
time step continuity errors : sum local = 0.00135485, global = 0.000232358, cumulative = 0.00820735
smoothSolver:  Solving for omega, Initial residual = 0.003573, Final residual = 0.000234689, No Iterations 6
smoothSolver:  Solving for k, Initial residual = 0.0341842, Final residual = 0.00272011, No Iterations 6
ExecutionTime = 0.49 s  ClockTime = 1 s

scalarTransport execute: age
smoothSolver:  Solving for age, Initial residual = 0.00923887, Final residual = 0.00079782, No Iterations 11

Time = 35

smoothSolver:  Solving for Ux, Initial residual = 0.00878386, Final residual = 0.000586588, No Iterations 6
smoothSolver:  Solving for Uy, Initial residual = 0.00774862, Final residual = 0.000762374, No Iterations 5
GAMG:  Solving for p, Initial residual = 0.0100387, Final residual = 0.000485186, No Iterations 2
time step continuity errors : sum local = 0.00129907, global = 0.000223347, cumulative = 0.0084307
smoothSolver:  Solving for omega, Initial residual = 0.00340186, Final residual = 0.000221364, No Iterations 6
smoothSolver:  Solving for k, Initial residual = 0.0328615, Final residual = 0.0026172, No Iterations 6
ExecutionTime = 0.5 s  ClockTime = 1 s

scalarTransport execute: age
smoothSolver:  Solving for age, Initial residual = 0.00908553, Final residual = 0.000795297, No Iterations 11

Time = 36

smoothSolver:  Solving for Ux, Initial residual = 0.00875271, Final residual = 0.000584474, No Iterations 6
smoothSolver:  Solving for Uy, Initial residual = 0.00735511, Final residual = 0.000722169, No Iterations 5
GAMG:  Solving for p, Initial residual = 0.00963359, Final residual = 0.000464722, No Iterations 2
time step continuity errors : sum local = 0.00123981, global = 0.000215944, cumulative = 0.00864664
smoothSolver:  Solving for omega, Initial residual = 0.00322829, Final residual = 0.000209299, No Iterations 6
smoothSolver:  Solving for k, Initial residual = 0.0315985, Final residual = 0.00251909, No Iterations 6
ExecutionTime = 0.51 s  ClockTime = 1 s

scalarTransport execute: age
smoothSolver:  Solving for age, Initial residual = 0.00889556, Final residual = 0.000789889, No Iterations 11

Time = 37

smoothSolver:  Solving for Ux, Initial residual = 0.00873296, Final residual = 0.000583775, No Iterations 6
smoothSolver:  Solving for Uy, Initial residual = 0.00697619, Final residual = 0.000682725, No Iterations 5
GAMG:  Solving for p, Initial residual = 0.00931389, Final residual = 0.000452814, No Iterations 2
time step continuity errors : sum local = 0.00120352, global = 0.000209722, cumulative = 0.00885637
smoothSolver:  Solving for omega, Initial residual = 0.00307133, Final residual = 0.000306159, No Iterations 5
smoothSolver:  Solving for k, Initial residual = 0.0304199, Final residual = 0.00242734, No Iterations 6
ExecutionTime = 0.52 s  ClockTime = 1 s

scalarTransport execute: age
smoothSolver:  Solving for age, Initial residual = 0.00871783, Final residual = 0.000784478, No Iterations 11

Time = 38

smoothSolver:  Solving for Ux, Initial residual = 0.00872114, Final residual = 0.000584, No Iterations 6
smoothSolver:  Solving for Uy, Initial residual = 0.00662361, Final residual = 0.000645563, No Iterations 5
GAMG:  Solving for p, Initial residual = 0.0091229, Final residual = 0.000452188, No Iterations 2
time step continuity errors : sum local = 0.0011967, global = 0.000205648, cumulative = 0.00906201
smoothSolver:  Solving for omega, Initial residual = 0.0029391, Final residual = 0.000291338, No Iterations 5
smoothSolver:  Solving for k, Initial residual = 0.0293112, Final residual = 0.00234063, No Iterations 6
ExecutionTime = 0.54 s  ClockTime = 1 s

scalarTransport execute: age
smoothSolver:  Solving for age, Initial residual = 0.00853445, Final residual = 0.000778275, No Iterations 11

Time = 39

smoothSolver:  Solving for Ux, Initial residual = 0.00871906, Final residual = 0.000584279, No Iterations 6
smoothSolver:  Solving for Uy, Initial residual = 0.00629326, Final residual = 0.000610386, No Iterations 5
GAMG:  Solving for p, Initial residual = 0.00902276, Final residual = 0.000464989, No Iterations 2
time step continuity errors : sum local = 0.00122493, global = 0.000203907, cumulative = 0.00926592
smoothSolver:  Solving for omega, Initial residual = 0.00281302, Final residual = 0.000277333, No Iterations 5
smoothSolver:  Solving for k, Initial residual = 0.0282494, Final residual = 0.00225745, No Iterations 6
ExecutionTime = 0.55 s  ClockTime = 1 s

scalarTransport execute: age
smoothSolver:  Solving for age, Initial residual = 0.00836286, Final residual = 0.000770629, No Iterations 11

Time = 40

smoothSolver:  Solving for Ux, Initial residual = 0.00874643, Final residual = 0.000584587, No Iterations 6
smoothSolver:  Solving for Uy, Initial residual = 0.00598451, Final residual = 0.000577855, No Iterations 5
GAMG:  Solving for p, Initial residual = 0.00895226, Final residual = 0.000496696, No Iterations 2
time step continuity errors : sum local = 0.00130283, global = 0.000209815, cumulative = 0.00947574
smoothSolver:  Solving for omega, Initial residual = 0.00269024, Final residual = 0.000263963, No Iterations 5
smoothSolver:  Solving for k, Initial residual = 0.0272356, Final residual = 0.00217781, No Iterations 6
ExecutionTime = 0.56 s  ClockTime = 1 s

scalarTransport execute: age
smoothSolver:  Solving for age, Initial residual = 0.00817249, Final residual = 0.000765676, No Iterations 11

Time = 41

smoothSolver:  Solving for Ux, Initial residual = 0.0087917, Final residual = 0.000585006, No Iterations 6
smoothSolver:  Solving for Uy, Initial residual = 0.00569656, Final residual = 0.000547893, No Iterations 5
GAMG:  Solving for p, Initial residual = 0.00892173, Final residual = 0.000528023, No Iterations 2
time step continuity errors : sum local = 0.00137968, global = 0.000219586, cumulative = 0.00969532
smoothSolver:  Solving for omega, Initial residual = 0.00257827, Final residual = 0.000251248, No Iterations 5
smoothSolver:  Solving for k, Initial residual = 0.0262705, Final residual = 0.00210161, No Iterations 6
ExecutionTime = 0.58 s  ClockTime = 1 s

scalarTransport execute: age
smoothSolver:  Solving for age, Initial residual = 0.0080109, Final residual = 0.000761783, No Iterations 11

Time = 42

smoothSolver:  Solving for Ux, Initial residual = 0.00885542, Final residual = 0.000586166, No Iterations 6
smoothSolver:  Solving for Uy, Initial residual = 0.00543882, Final residual = 0.000521196, No Iterations 5
GAMG:  Solving for p, Initial residual = 0.0089707, Final residual = 0.000562245, No Iterations 2
time step continuity errors : sum local = 0.00146383, global = 0.000230663, cumulative = 0.00992599
smoothSolver:  Solving for omega, Initial residual = 0.00247415, Final residual = 0.000239047, No Iterations 5
smoothSolver:  Solving for k, Initial residual = 0.0253558, Final residual = 0.00202876, No Iterations 6
ExecutionTime = 0.59 s  ClockTime = 1 s

scalarTransport execute: age
smoothSolver:  Solving for age, Initial residual = 0.007891, Final residual = 0.000755665, No Iterations 11

Time = 43

smoothSolver:  Solving for Ux, Initial residual = 0.008933, Final residual = 0.000587584, No Iterations 6
smoothSolver:  Solving for Uy, Initial residual = 0.00521917, Final residual = 0.000497669, No Iterations 5
GAMG:  Solving for p, Initial residual = 0.00911948, Final residual = 0.000597678, No Iterations 2
time step continuity errors : sum local = 0.00155098, global = 0.000241843, cumulative = 0.0101678
smoothSolver:  Solving for omega, Initial residual = 0.00236914, Final residual = 0.000227647, No Iterations 5
smoothSolver:  Solving for k, Initial residual = 0.0244806, Final residual = 0.00195893, No Iterations 6
ExecutionTime = 0.6 s  ClockTime = 1 s

scalarTransport execute: age
smoothSolver:  Solving for age, Initial residual = 0.00776449, Final residual = 0.000749403, No Iterations 11

Time = 44

smoothSolver:  Solving for Ux, Initial residual = 0.00901053, Final residual = 0.000589407, No Iterations 6
smoothSolver:  Solving for Uy, Initial residual = 0.00503101, Final residual = 0.000477698, No Iterations 5
GAMG:  Solving for p, Initial residual = 0.00925702, Final residual = 0.000629036, No Iterations 2
time step continuity errors : sum local = 0.00162824, global = 0.000252056, cumulative = 0.0104199
smoothSolver:  Solving for omega, Initial residual = 0.002268, Final residual = 0.000216593, No Iterations 5
smoothSolver:  Solving for k, Initial residual = 0.0236447, Final residual = 0.00189207, No Iterations 6
ExecutionTime = 0.61 s  ClockTime = 1 s

scalarTransport execute: age
smoothSolver:  Solving for age, Initial residual = 0.0076636, Final residual = 0.00075033, No Iterations 11

Time = 45

smoothSolver:  Solving for Ux, Initial residual = 0.009083, Final residual = 0.000591717, No Iterations 6
smoothSolver:  Solving for Uy, Initial residual = 0.00487741, Final residual = 0.000461396, No Iterations 5
GAMG:  Solving for p, Initial residual = 0.00936399, Final residual = 0.000655092, No Iterations 2
time step continuity errors : sum local = 0.00169316, global = 0.000260177, cumulative = 0.0106801
smoothSolver:  Solving for omega, Initial residual = 0.00217895, Final residual = 0.000205929, No Iterations 5
smoothSolver:  Solving for k, Initial residual = 0.0228486, Final residual = 0.00182806, No Iterations 6
ExecutionTime = 0.63 s  ClockTime = 1 s

scalarTransport execute: age
smoothSolver:  Solving for age, Initial residual = 0.00757362, Final residual = 0.000653864, No Iterations 12

Time = 46

smoothSolver:  Solving for Ux, Initial residual = 0.00915941, Final residual = 0.000594757, No Iterations 6
smoothSolver:  Solving for Uy, Initial residual = 0.0047594, Final residual = 0.000448907, No Iterations 5
GAMG:  Solving for p, Initial residual = 0.00945132, Final residual = 0.000679251, No Iterations 2
time step continuity errors : sum local = 0.00175389, global = 0.000266146, cumulative = 0.0109462
smoothSolver:  Solving for omega, Initial residual = 0.00209632, Final residual = 0.000196273, No Iterations 5
smoothSolver:  Solving for k, Initial residual = 0.0220879, Final residual = 0.00176663, No Iterations 6
ExecutionTime = 0.64 s  ClockTime = 1 s

scalarTransport execute: age
smoothSolver:  Solving for age, Initial residual = 0.00754171, Final residual = 0.000665915, No Iterations 12

Time = 47

smoothSolver:  Solving for Ux, Initial residual = 0.00925102, Final residual = 0.000923835, No Iterations 5
smoothSolver:  Solving for Uy, Initial residual = 0.00467519, Final residual = 0.000440183, No Iterations 5
GAMG:  Solving for p, Initial residual = 0.00948184, Final residual = 0.000691694, No Iterations 2
time step continuity errors : sum local = 0.0017855, global = 0.00026809, cumulative = 0.0112143
smoothSolver:  Solving for omega, Initial residual = 0.00202049, Final residual = 0.000187333, No Iterations 5
smoothSolver:  Solving for k, Initial residual = 0.0213653, Final residual = 0.00170809, No Iterations 6
ExecutionTime = 0.65 s  ClockTime = 1 s

scalarTransport execute: age
smoothSolver:  Solving for age, Initial residual = 0.00749318, Final residual = 0.000676237, No Iterations 12

Time = 48

smoothSolver:  Solving for Ux, Initial residual = 0.00939035, Final residual = 0.000936035, No Iterations 5
smoothSolver:  Solving for Uy, Initial residual = 0.00458787, Final residual = 0.000430981, No Iterations 5
GAMG:  Solving for p, Initial residual = 0.00955877, Final residual = 0.000710338, No Iterations 2
time step continuity errors : sum local = 0.00183391, global = 0.000267498, cumulative = 0.0114818
smoothSolver:  Solving for omega, Initial residual = 0.0019496, Final residual = 0.000178908, No Iterations 5
smoothSolver:  Solving for k, Initial residual = 0.0206742, Final residual = 0.00165202, No Iterations 6
ExecutionTime = 0.67 s  ClockTime = 1 s

scalarTransport execute: age
smoothSolver:  Solving for age, Initial residual = 0.00743281, Final residual = 0.000683308, No Iterations 12

Time = 49

smoothSolver:  Solving for Ux, Initial residual = 0.00952495, Final residual = 0.0009491, No Iterations 5
smoothSolver:  Solving for Uy, Initial residual = 0.00455387, Final residual = 0.000427527, No Iterations 5
GAMG:  Solving for p, Initial residual = 0.00962627, Final residual = 0.000733956, No Iterations 2
time step continuity errors : sum local = 0.00189632, global = 0.000265983, cumulative = 0.0117478
smoothSolver:  Solving for omega, Initial residual = 0.00188241, Final residual = 0.000170997, No Iterations 5
smoothSolver:  Solving for k, Initial residual = 0.0200131, Final residual = 0.00159829, No Iterations 6
ExecutionTime = 0.68 s  ClockTime = 1 s

scalarTransport execute: age
smoothSolver:  Solving for age, Initial residual = 0.00742309, Final residual = 0.000689754, No Iterations 12

Time = 50

smoothSolver:  Solving for Ux, Initial residual = 0.00964432, Final residual = 0.000962412, No Iterations 5
smoothSolver:  Solving for Uy, Initial residual = 0.00456417, Final residual = 0.000430319, No Iterations 5
GAMG:  Solving for p, Initial residual = 0.00967406, Final residual = 0.000757396, No Iterations 2
time step continuity errors : sum local = 0.0019589, global = 0.000264578, cumulative = 0.0120124
smoothSolver:  Solving for omega, Initial residual = 0.00182623, Final residual = 0.000163606, No Iterations 5
smoothSolver:  Solving for k, Initial residual = 0.0193765, Final residual = 0.00154671, No Iterations 6
ExecutionTime = 0.69 s  ClockTime = 1 s

scalarTransport execute: age
smoothSolver:  Solving for age, Initial residual = 0.00747205, Final residual = 0.000707157, No Iterations 12

Time = 51

smoothSolver:  Solving for Ux, Initial residual = 0.00976186, Final residual = 0.00097604, No Iterations 5
smoothSolver:  Solving for Uy, Initial residual = 0.00460984, Final residual = 0.000438422, No Iterations 5
GAMG:  Solving for p, Initial residual = 0.00976164, Final residual = 0.000776823, No Iterations 2
time step continuity errors : sum local = 0.00201115, global = 0.000263466, cumulative = 0.0122758
smoothSolver:  Solving for omega, Initial residual = 0.00177281, Final residual = 0.000156662, No Iterations 5
smoothSolver:  Solving for k, Initial residual = 0.0187654, Final residual = 0.00149717, No Iterations 6
ExecutionTime = 0.7 s  ClockTime = 1 s

scalarTransport execute: age
smoothSolver:  Solving for age, Initial residual = 0.00762317, Final residual = 0.000724499, No Iterations 12

Time = 52

smoothSolver:  Solving for Ux, Initial residual = 0.00987063, Final residual = 0.000642983, No Iterations 6
smoothSolver:  Solving for Uy, Initial residual = 0.00468338, Final residual = 0.000450728, No Iterations 5
GAMG:  Solving for p, Initial residual = 0.00994156, Final residual = 0.00080207, No Iterations 2
time step continuity errors : sum local = 0.00207874, global = 0.000263773, cumulative = 0.0125396
smoothSolver:  Solving for omega, Initial residual = 0.00172674, Final residual = 0.000150155, No Iterations 5
smoothSolver:  Solving for k, Initial residual = 0.0181749, Final residual = 0.00144932, No Iterations 6
ExecutionTime = 0.72 s  ClockTime = 1 s

scalarTransport execute: age
smoothSolver:  Solving for age, Initial residual = 0.00794223, Final residual = 0.000753124, No Iterations 12

Time = 53

smoothSolver:  Solving for Ux, Initial residual = 0.00995046, Final residual = 0.000650183, No Iterations 6
smoothSolver:  Solving for Uy, Initial residual = 0.00483279, Final residual = 0.00047156, No Iterations 5
GAMG:  Solving for p, Initial residual = 0.0102167, Final residual = 0.000813074, No Iterations 2
time step continuity errors : sum local = 0.0021111, global = 0.000264575, cumulative = 0.0128042
smoothSolver:  Solving for omega, Initial residual = 0.00168067, Final residual = 0.000144141, No Iterations 5
smoothSolver:  Solving for k, Initial residual = 0.01761, Final residual = 0.00140349, No Iterations 6
ExecutionTime = 0.73 s  ClockTime = 1 s

scalarTransport execute: age
smoothSolver:  Solving for age, Initial residual = 0.00832184, Final residual = 0.000794784, No Iterations 12

Time = 54

smoothSolver:  Solving for Ux, Initial residual = 0.0100279, Final residual = 0.000658449, No Iterations 6
smoothSolver:  Solving for Uy, Initial residual = 0.00498372, Final residual = 0.000493198, No Iterations 5
GAMG:  Solving for p, Initial residual = 0.010661, Final residual = 0.000813187, No Iterations 2
time step continuity errors : sum local = 0.00211943, global = 0.000265076, cumulative = 0.0130692
smoothSolver:  Solving for omega, Initial residual = 0.00163324, Final residual = 0.000138631, No Iterations 5
smoothSolver:  Solving for k, Initial residual = 0.0170681, Final residual = 0.00135948, No Iterations 6
ExecutionTime = 0.74 s  ClockTime = 1 s

scalarTransport execute: age
smoothSolver:  Solving for age, Initial residual = 0.00872207, Final residual = 0.000801216, No Iterations 15

Time = 55

smoothSolver:  Solving for Ux, Initial residual = 0.0101115, Final residual = 0.000668205, No Iterations 6
smoothSolver:  Solving for Uy, Initial residual = 0.00512943, Final residual = 0.000335491, No Iterations 6
GAMG:  Solving for p, Initial residual = 0.0115231, Final residual = 0.000806579, No Iterations 2
time step continuity errors : sum local = 0.00211664, global = 0.000266873, cumulative = 0.0133361
smoothSolver:  Solving for omega, Initial residual = 0.00159719, Final residual = 0.000133562, No Iterations 5
smoothSolver:  Solving for k, Initial residual = 0.0165529, Final residual = 0.00131715, No Iterations 6
ExecutionTime = 0.76 s  ClockTime = 1 s

scalarTransport execute: age
smoothSolver:  Solving for age, Initial residual = 0.0106972, Final residual = 0.000965466, No Iterations 14

Time = 56

smoothSolver:  Solving for Ux, Initial residual = 0.0102715, Final residual = 0.000680124, No Iterations 6
smoothSolver:  Solving for Uy, Initial residual = 0.00523608, Final residual = 0.000345277, No Iterations 6
GAMG:  Solving for p, Initial residual = 0.013024, Final residual = 0.000802589, No Iterations 2
time step continuity errors : sum local = 0.00217448, global = 0.000271508, cumulative = 0.0136076
smoothSolver:  Solving for omega, Initial residual = 0.00156462, Final residual = 0.000128601, No Iterations 5
smoothSolver:  Solving for k, Initial residual = 0.0160567, Final residual = 0.00127634, No Iterations 6
ExecutionTime = 0.77 s  ClockTime = 1 s

scalarTransport execute: age
smoothSolver:  Solving for age, Initial residual = 0.0122304, Final residual = 0.00114758, No Iterations 12

Time = 57

smoothSolver:  Solving for Ux, Initial residual = 0.0104171, Final residual = 0.000691122, No Iterations 6
smoothSolver:  Solving for Uy, Initial residual = 0.00538909, Final residual = 0.000356297, No Iterations 6
GAMG:  Solving for p, Initial residual = 0.0130237, Final residual = 0.000852748, No Iterations 2
time step continuity errors : sum local = 0.00226004, global = 0.000280392, cumulative = 0.013888
smoothSolver:  Solving for omega, Initial residual = 0.00151987, Final residual = 0.000123563, No Iterations 5
smoothSolver:  Solving for k, Initial residual = 0.0155813, Final residual = 0.00123717, No Iterations 6
ExecutionTime = 0.78 s  ClockTime = 1 s

scalarTransport execute: age
smoothSolver:  Solving for age, Initial residual = 0.0122425, Final residual = 0.00108008, No Iterations 12

Time = 58

smoothSolver:  Solving for Ux, Initial residual = 0.0105654, Final residual = 0.000700609, No Iterations 6
smoothSolver:  Solving for Uy, Initial residual = 0.00555433, Final residual = 0.00036904, No Iterations 6
GAMG:  Solving for p, Initial residual = 0.013141, Final residual = 0.000894127, No Iterations 2
time step continuity errors : sum local = 0.00233062, global = 0.000289441, cumulative = 0.0141775
smoothSolver:  Solving for omega, Initial residual = 0.00148302, Final residual = 0.000118201, No Iterations 5
smoothSolver:  Solving for k, Initial residual = 0.0151187, Final residual = 0.00119959, No Iterations 6
ExecutionTime = 0.8 s  ClockTime = 1 s

scalarTransport execute: age
smoothSolver:  Solving for age, Initial residual = 0.0121911, Final residual = 0.00110991, No Iterations 12

Time = 59

smoothSolver:  Solving for Ux, Initial residual = 0.0107002, Final residual = 0.000709468, No Iterations 6
smoothSolver:  Solving for Uy, Initial residual = 0.00576554, Final residual = 0.000383725, No Iterations 6
GAMG:  Solving for p, Initial residual = 0.0128752, Final residual = 0.000910435, No Iterations 2
time step continuity errors : sum local = 0.00234527, global = 0.000291738, cumulative = 0.0144692
smoothSolver:  Solving for omega, Initial residual = 0.00143243, Final residual = 0.000113591, No Iterations 5
smoothSolver:  Solving for k, Initial residual = 0.0146739, Final residual = 0.0011635, No Iterations 6
ExecutionTime = 0.81 s  ClockTime = 1 s

scalarTransport execute: age
smoothSolver:  Solving for age, Initial residual = 0.0123191, Final residual = 0.0011367, No Iterations 12

Time = 60

smoothSolver:  Solving for Ux, Initial residual = 0.0108322, Final residual = 0.000719182, No Iterations 6
smoothSolver:  Solving for Uy, Initial residual = 0.00598761, Final residual = 0.000398533, No Iterations 6
GAMG:  Solving for p, Initial residual = 0.0127455, Final residual = 0.000946902, No Iterations 2
time step continuity errors : sum local = 0.00242269, global = 0.000291356, cumulative = 0.0147606
smoothSolver:  Solving for omega, Initial residual = 0.00138471, Final residual = 0.000109585, No Iterations 5
smoothSolver:  Solving for k, Initial residual = 0.0142502, Final residual = 0.0011287, No Iterations 6
ExecutionTime = 0.82 s  ClockTime = 1 s

scalarTransport execute: age
smoothSolver:  Solving for age, Initial residual = 0.0128642, Final residual = 0.00116056, No Iterations 12

Time = 61

smoothSolver:  Solving for Ux, Initial residual = 0.0109243, Final residual = 0.000727778, No Iterations 6
smoothSolver:  Solving for Uy, Initial residual = 0.00614301, Final residual = 0.000411805, No Iterations 6
GAMG:  Solving for p, Initial residual = 0.0127129, Final residual = 0.000975814, No Iterations 2
time step continuity errors : sum local = 0.00248362, global = 0.000288797, cumulative = 0.0150494
smoothSolver:  Solving for omega, Initial residual = 0.00135249, Final residual = 0.000105563, No Iterations 5
smoothSolver:  Solving for k, Initial residual = 0.0138437, Final residual = 0.00109522, No Iterations 6
ExecutionTime = 0.83 s  ClockTime = 1 s

scalarTransport execute: age
smoothSolver:  Solving for age, Initial residual = 0.0135839, Final residual = 0.00119872, No Iterations 12

Time = 62

smoothSolver:  Solving for Ux, Initial residual = 0.0109805, Final residual = 0.000734084, No Iterations 6
smoothSolver:  Solving for Uy, Initial residual = 0.0062877, Final residual = 0.000424052, No Iterations 6
GAMG:  Solving for p, Initial residual = 0.0125749, Final residual = 0.00098682, No Iterations 2
time step continuity errors : sum local = 0.00250314, global = 0.000284378, cumulative = 0.0153337
smoothSolver:  Solving for omega, Initial residual = 0.00130849, Final residual = 0.000101663, No Iterations 5
smoothSolver:  Solving for k, Initial residual = 0.0134479, Final residual = 0.00106295, No Iterations 6
ExecutionTime = 0.85 s  ClockTime = 1 s

scalarTransport execute: age
smoothSolver:  Solving for age, Initial residual = 0.0141291, Final residual = 0.00123567, No Iterations 12

Time = 63

smoothSolver:  Solving for Ux, Initial residual = 0.0109925, Final residual = 0.000737243, No Iterations 6
smoothSolver:  Solving for Uy, Initial residual = 0.00639851, Final residual = 0.000435162, No Iterations 6
GAMG:  Solving for p, Initial residual = 0.011942, Final residual = 0.000952739, No Iterations 2
time step continuity errors : sum local = 0.00240009, global = 0.000276754, cumulative = 0.0156105
smoothSolver:  Solving for omega, Initial residual = 0.00125537, Final residual = 9.79366e-05, No Iterations 5
smoothSolver:  Solving for k, Initial residual = 0.0130668, Final residual = 0.001032, No Iterations 6
ExecutionTime = 0.86 s  ClockTime = 1 s

scalarTransport execute: age
smoothSolver:  Solving for age, Initial residual = 0.0151722, Final residual = 0.00148328, No Iterations 11

Time = 64

smoothSolver:  Solving for Ux, Initial residual = 0.0109382, Final residual = 0.000738086, No Iterations 6
smoothSolver:  Solving for Uy, Initial residual = 0.0064711, Final residual = 0.000445489, No Iterations 6
GAMG:  Solving for p, Initial residual = 0.0113301, Final residual = 0.00090954, No Iterations 2
time step continuity errors : sum local = 0.00227667, global = 0.000265966, cumulative = 0.0158765
smoothSolver:  Solving for omega, Initial residual = 0.00121351, Final residual = 9.44005e-05, No Iterations 5
smoothSolver:  Solving for k, Initial residual = 0.0127024, Final residual = 0.00100224, No Iterations 6
ExecutionTime = 0.87 s  ClockTime = 1 s

scalarTransport execute: age
smoothSolver:  Solving for age, Initial residual = 0.0158601, Final residual = 0.00136803, No Iterations 12

Time = 65

smoothSolver:  Solving for Ux, Initial residual = 0.0108537, Final residual = 0.00073754, No Iterations 6
smoothSolver:  Solving for Uy, Initial residual = 0.00653165, Final residual = 0.000454394, No Iterations 6
GAMG:  Solving for p, Initial residual = 0.0107758, Final residual = 0.000881815, No Iterations 2
time step continuity errors : sum local = 0.00219813, global = 0.000258532, cumulative = 0.016135
smoothSolver:  Solving for omega, Initial residual = 0.00117725, Final residual = 9.1069e-05, No Iterations 5
smoothSolver:  Solving for k, Initial residual = 0.0123486, Final residual = 0.00097359, No Iterations 6
ExecutionTime = 0.89 s  ClockTime = 1 s

scalarTransport execute: age
smoothSolver:  Solving for age, Initial residual = 0.0163318, Final residual = 0.00139495, No Iterations 12

Time = 66

smoothSolver:  Solving for Ux, Initial residual = 0.0107275, Final residual = 0.000734598, No Iterations 6
smoothSolver:  Solving for Uy, Initial residual = 0.00656586, Final residual = 0.000461707, No Iterations 6
GAMG:  Solving for p, Initial residual = 0.0102547, Final residual = 0.000842977, No Iterations 2
time step continuity errors : sum local = 0.00209645, global = 0.000250207, cumulative = 0.0163852
smoothSolver:  Solving for omega, Initial residual = 0.00114548, Final residual = 8.79547e-05, No Iterations 5
smoothSolver:  Solving for k, Initial residual = 0.012006, Final residual = 0.000945969, No Iterations 6
ExecutionTime = 0.9 s  ClockTime = 1 s

scalarTransport execute: age
smoothSolver:  Solving for age, Initial residual = 0.0170799, Final residual = 0.00165614, No Iterations 11

Time = 67

smoothSolver:  Solving for Ux, Initial residual = 0.0106134, Final residual = 0.000730503, No Iterations 6
smoothSolver:  Solving for Uy, Initial residual = 0.00659189, Final residual = 0.00046759, No Iterations 6
GAMG:  Solving for p, Initial residual = 0.00986909, Final residual = 0.000804218, No Iterations 2
time step continuity errors : sum local = 0.00199623, global = 0.000240971, cumulative = 0.0166262
smoothSolver:  Solving for omega, Initial residual = 0.00110683, Final residual = 8.49071e-05, No Iterations 5
smoothSolver:  Solving for k, Initial residual = 0.0116737, Final residual = 0.000919311, No Iterations 6
ExecutionTime = 0.91 s  ClockTime = 1 s

scalarTransport execute: age
smoothSolver:  Solving for age, Initial residual = 0.0177324, Final residual = 0.00169629, No Iterations 11

Time = 68

smoothSolver:  Solving for Ux, Initial residual = 0.0105167, Final residual = 0.000725921, No Iterations 6
smoothSolver:  Solving for Uy, Initial residual = 0.00659613, Final residual = 0.000472206, No Iterations 6
GAMG:  Solving for p, Initial residual = 0.00969151, Final residual = 0.00076137, No Iterations 2
time step continuity errors : sum local = 0.00188634, global = 0.000229963, cumulative = 0.0168561
smoothSolver:  Solving for omega, Initial residual = 0.0010721, Final residual = 8.20014e-05, No Iterations 5
smoothSolver:  Solving for k, Initial residual = 0.0113516, Final residual = 0.000893588, No Iterations 6
ExecutionTime = 0.93 s  ClockTime = 1 s

scalarTransport execute: age
smoothSolver:  Solving for age, Initial residual = 0.0182173, Final residual = 0.00169676, No Iterations 11

Time = 69

smoothSolver:  Solving for Ux, Initial residual = 0.0104475, Final residual = 0.000721249, No Iterations 6
smoothSolver:  Solving for Uy, Initial residual = 0.00659018, Final residual = 0.000475759, No Iterations 6
GAMG:  Solving for p, Initial residual = 0.00950718, Final residual = 0.00070437, No Iterations 2
time step continuity errors : sum local = 0.00174173, global = 0.00021165, cumulative = 0.0170678
smoothSolver:  Solving for omega, Initial residual = 0.00103809, Final residual = 7.92179e-05, No Iterations 5
smoothSolver:  Solving for k, Initial residual = 0.0110392, Final residual = 0.00086877, No Iterations 6
ExecutionTime = 0.94 s  ClockTime = 1 s

scalarTransport execute: age
smoothSolver:  Solving for age, Initial residual = 0.0187095, Final residual = 0.00165173, No Iterations 11

Time = 70

smoothSolver:  Solving for Ux, Initial residual = 0.0104084, Final residual = 0.000718029, No Iterations 6
smoothSolver:  Solving for Uy, Initial residual = 0.0065834, Final residual = 0.000478585, No Iterations 6
GAMG:  Solving for p, Initial residual = 0.00950536, Final residual = 0.000660536, No Iterations 2
time step continuity errors : sum local = 0.00162912, global = 0.000192012, cumulative = 0.0172598
smoothSolver:  Solving for omega, Initial residual = 0.00100637, Final residual = 7.65892e-05, No Iterations 5
smoothSolver:  Solving for k, Initial residual = 0.0107363, Final residual = 0.000844764, No Iterations 6
ExecutionTime = 0.95 s  ClockTime = 1 s

scalarTransport execute: age
smoothSolver:  Solving for age, Initial residual = 0.0189049, Final residual = 0.0017631, No Iterations 11

Time = 71

smoothSolver:  Solving for Ux, Initial residual = 0.0103781, Final residual = 0.000716085, No Iterations 6
smoothSolver:  Solving for Uy, Initial residual = 0.00657358, Final residual = 0.000481023, No Iterations 6
GAMG:  Solving for p, Initial residual = 0.00958787, Final residual = 0.000625846, No Iterations 2
time step continuity errors : sum local = 0.00153973, global = 0.0001718, cumulative = 0.0174316
smoothSolver:  Solving for omega, Initial residual = 0.000978057, Final residual = 7.41246e-05, No Iterations 5
smoothSolver:  Solving for k, Initial residual = 0.0104427, Final residual = 0.000821576, No Iterations 6
ExecutionTime = 0.96 s  ClockTime = 1 s

scalarTransport execute: age
smoothSolver:  Solving for age, Initial residual = 0.0186413, Final residual = 0.0018086, No Iterations 11

Time = 72

smoothSolver:  Solving for Ux, Initial residual = 0.0103443, Final residual = 0.000714349, No Iterations 6
smoothSolver:  Solving for Uy, Initial residual = 0.00656715, Final residual = 0.000482967, No Iterations 6
GAMG:  Solving for p, Initial residual = 0.00964296, Final residual = 0.000598309, No Iterations 2
time step continuity errors : sum local = 0.00146766, global = 0.000151589, cumulative = 0.0175832
smoothSolver:  Solving for omega, Initial residual = 0.000949071, Final residual = 7.17734e-05, No Iterations 5
smoothSolver:  Solving for k, Initial residual = 0.0101594, Final residual = 0.00079919, No Iterations 6
ExecutionTime = 0.98 s  ClockTime = 1 s

scalarTransport execute: age
smoothSolver:  Solving for age, Initial residual = 0.0176764, Final residual = 0.00170418, No Iterations 11

Time = 73

smoothSolver:  Solving for Ux, Initial residual = 0.0103034, Final residual = 0.000713137, No Iterations 6
smoothSolver:  Solving for Uy, Initial residual = 0.00656411, Final residual = 0.000484478, No Iterations 6
GAMG:  Solving for p, Initial residual = 0.0096771, Final residual = 0.000574108, No Iterations 2
time step continuity errors : sum local = 0.00140315, global = 0.000132298, cumulative = 0.0177155
smoothSolver:  Solving for omega, Initial residual = 0.000920315, Final residual = 6.95581e-05, No Iterations 5
smoothSolver:  Solving for k, Initial residual = 0.00988688, Final residual = 0.000777575, No Iterations 6
ExecutionTime = 0.99 s  ClockTime = 1 s

scalarTransport execute: age
smoothSolver:  Solving for age, Initial residual = 0.0166746, Final residual = 0.00160374, No Iterations 11

Time = 74

smoothSolver:  Solving for Ux, Initial residual = 0.0102559, Final residual = 0.000710509, No Iterations 6
smoothSolver:  Solving for Uy, Initial residual = 0.00656007, Final residual = 0.000485521, No Iterations 6
GAMG:  Solving for p, Initial residual = 0.00967608, Final residual = 0.000561999, No Iterations 2
time step continuity errors : sum local = 0.00136801, global = 0.000118578, cumulative = 0.0178341
smoothSolver:  Solving for omega, Initial residual = 0.00089276, Final residual = 6.74207e-05, No Iterations 5
smoothSolver:  Solving for k, Initial residual = 0.00962684, Final residual = 0.000756669, No Iterations 6
ExecutionTime = 1 s  ClockTime = 1 s

scalarTransport execute: age
smoothSolver:  Solving for age, Initial residual = 0.0152826, Final residual = 0.00134456, No Iterations 12

Time = 75

smoothSolver:  Solving for Ux, Initial residual = 0.0101769, Final residual = 0.000705578, No Iterations 6
smoothSolver:  Solving for Uy, Initial residual = 0.006554, Final residual = 0.000485873, No Iterations 6
GAMG:  Solving for p, Initial residual = 0.0096124, Final residual = 0.000549253, No Iterations 2
time step continuity errors : sum local = 0.00132978, global = 0.000106494, cumulative = 0.0179405
smoothSolver:  Solving for omega, Initial residual = 0.000868948, Final residual = 6.53823e-05, No Iterations 5
smoothSolver:  Solving for k, Initial residual = 0.00937507, Final residual = 0.000736415, No Iterations 6
ExecutionTime = 1.02 s  ClockTime = 2 s

scalarTransport execute: age
smoothSolver:  Solving for age, Initial residual = 0.0142063, Final residual = 0.00128697, No Iterations 12

Time = 76

smoothSolver:  Solving for Ux, Initial residual = 0.0100837, Final residual = 0.000699548, No Iterations 6
smoothSolver:  Solving for Uy, Initial residual = 0.00654333, Final residual = 0.000485713, No Iterations 6
GAMG:  Solving for p, Initial residual = 0.0094652, Final residual = 0.000539753, No Iterations 2
time step continuity errors : sum local = 0.00129967, global = 9.77564e-05, cumulative = 0.0180383
smoothSolver:  Solving for omega, Initial residual = 0.000843873, Final residual = 6.34183e-05, No Iterations 5
smoothSolver:  Solving for k, Initial residual = 0.00913131, Final residual = 0.000716793, No Iterations 6
ExecutionTime = 1.03 s  ClockTime = 2 s

scalarTransport execute: age
smoothSolver:  Solving for age, Initial residual = 0.0132782, Final residual = 0.00124331, No Iterations 12

Time = 77

smoothSolver:  Solving for Ux, Initial residual = 0.00997923, Final residual = 0.000692524, No Iterations 6
smoothSolver:  Solving for Uy, Initial residual = 0.00653885, Final residual = 0.000484905, No Iterations 6
GAMG:  Solving for p, Initial residual = 0.00926626, Final residual = 0.000533999, No Iterations 2
time step continuity errors : sum local = 0.0012773, global = 9.06652e-05, cumulative = 0.018129
smoothSolver:  Solving for omega, Initial residual = 0.000820282, Final residual = 6.14407e-05, No Iterations 5
smoothSolver:  Solving for k, Initial residual = 0.00889416, Final residual = 0.000697765, No Iterations 6
ExecutionTime = 1.04 s  ClockTime = 2 s

scalarTransport execute: age
smoothSolver:  Solving for age, Initial residual = 0.0126381, Final residual = 0.00122565, No Iterations 12

Time = 78

smoothSolver:  Solving for Ux, Initial residual = 0.00986671, Final residual = 0.000684358, No Iterations 6
smoothSolver:  Solving for Uy, Initial residual = 0.00652466, Final residual = 0.000483051, No Iterations 6
GAMG:  Solving for p, Initial residual = 0.00901207, Final residual = 0.000529788, No Iterations 2
time step continuity errors : sum local = 0.00125793, global = 8.56397e-05, cumulative = 0.0182146
smoothSolver:  Solving for omega, Initial residual = 0.000798477, Final residual = 5.95096e-05, No Iterations 5
smoothSolver:  Solving for k, Initial residual = 0.0086628, Final residual = 0.000679289, No Iterations 6
ExecutionTime = 1.06 s  ClockTime = 2 s

scalarTransport execute: age
smoothSolver:  Solving for age, Initial residual = 0.0122053, Final residual = 0.0010704, No Iterations 13

Time = 79

smoothSolver:  Solving for Ux, Initial residual = 0.00973969, Final residual = 0.000675124, No Iterations 6
smoothSolver:  Solving for Uy, Initial residual = 0.00649308, Final residual = 0.000479799, No Iterations 6
GAMG:  Solving for p, Initial residual = 0.00873949, Final residual = 0.000525396, No Iterations 2
time step continuity errors : sum local = 0.00123807, global = 8.40883e-05, cumulative = 0.0182987
smoothSolver:  Solving for omega, Initial residual = 0.000779434, Final residual = 5.75764e-05, No Iterations 5
smoothSolver:  Solving for k, Initial residual = 0.00843785, Final residual = 0.000661346, No Iterations 6
ExecutionTime = 1.07 s  ClockTime = 2 s

scalarTransport execute: age
smoothSolver:  Solving for age, Initial residual = 0.0118709, Final residual = 0.00109967, No Iterations 13

Time = 80

smoothSolver:  Solving for Ux, Initial residual = 0.00959876, Final residual = 0.000664765, No Iterations 6
smoothSolver:  Solving for Uy, Initial residual = 0.00644092, Final residual = 0.000475088, No Iterations 6
GAMG:  Solving for p, Initial residual = 0.00853673, Final residual = 0.000516571, No Iterations 2
time step continuity errors : sum local = 0.00121036, global = 8.3271e-05, cumulative = 0.018382
smoothSolver:  Solving for omega, Initial residual = 0.000761404, Final residual = 5.57556e-05, No Iterations 5
smoothSolver:  Solving for k, Initial residual = 0.00821777, Final residual = 0.000643901, No Iterations 6
ExecutionTime = 1.08 s  ClockTime = 2 s

scalarTransport execute: age
smoothSolver:  Solving for age, Initial residual = 0.0116091, Final residual = 0.00112457, No Iterations 13

Time = 81

smoothSolver:  Solving for Ux, Initial residual = 0.00944924, Final residual = 0.00065357, No Iterations 6
smoothSolver:  Solving for Uy, Initial residual = 0.00637194, Final residual = 0.000469011, No Iterations 6
GAMG:  Solving for p, Initial residual = 0.00842224, Final residual = 0.000513197, No Iterations 2
time step continuity errors : sum local = 0.00119701, global = 8.31037e-05, cumulative = 0.0184651
smoothSolver:  Solving for omega, Initial residual = 0.000743824, Final residual = 5.40625e-05, No Iterations 5
smoothSolver:  Solving for k, Initial residual = 0.00800373, Final residual = 0.000626954, No Iterations 6
ExecutionTime = 1.1 s  ClockTime = 2 s

scalarTransport execute: age
smoothSolver:  Solving for age, Initial residual = 0.0112799, Final residual = 0.00100764, No Iterations 14

Time = 82

smoothSolver:  Solving for Ux, Initial residual = 0.00929225, Final residual = 0.000641534, No Iterations 6
smoothSolver:  Solving for Uy, Initial residual = 0.00628442, Final residual = 0.000461665, No Iterations 6
GAMG:  Solving for p, Initial residual = 0.00835888, Final residual = 0.000516697, No Iterations 2
time step continuity errors : sum local = 0.00119868, global = 8.23483e-05, cumulative = 0.0185474
smoothSolver:  Solving for omega, Initial residual = 0.000728457, Final residual = 5.25366e-05, No Iterations 5
smoothSolver:  Solving for k, Initial residual = 0.00779415, Final residual = 0.000610456, No Iterations 6
ExecutionTime = 1.11 s  ClockTime = 2 s

scalarTransport execute: age
smoothSolver:  Solving for age, Initial residual = 0.0111069, Final residual = 0.00102927, No Iterations 14

Time = 83

smoothSolver:  Solving for Ux, Initial residual = 0.00912909, Final residual = 0.000628707, No Iterations 6
smoothSolver:  Solving for Uy, Initial residual = 0.00618028, Final residual = 0.000453256, No Iterations 6
GAMG:  Solving for p, Initial residual = 0.00831345, Final residual = 0.000520863, No Iterations 2
time step continuity errors : sum local = 0.00120164, global = 7.94624e-05, cumulative = 0.0186269
smoothSolver:  Solving for omega, Initial residual = 0.000713687, Final residual = 5.11449e-05, No Iterations 5
smoothSolver:  Solving for k, Initial residual = 0.00758971, Final residual = 0.000594387, No Iterations 6
ExecutionTime = 1.12 s  ClockTime = 2 s

scalarTransport execute: age
smoothSolver:  Solving for age, Initial residual = 0.0109131, Final residual = 0.00104606, No Iterations 14

Time = 84

smoothSolver:  Solving for Ux, Initial residual = 0.00895494, Final residual = 0.000615204, No Iterations 6
smoothSolver:  Solving for Uy, Initial residual = 0.00606702, Final residual = 0.000444019, No Iterations 6
GAMG:  Solving for p, Initial residual = 0.0082727, Final residual = 0.000523766, No Iterations 2
time step continuity errors : sum local = 0.00120233, global = 7.56971e-05, cumulative = 0.0187026
smoothSolver:  Solving for omega, Initial residual = 0.000697688, Final residual = 4.97795e-05, No Iterations 5
smoothSolver:  Solving for k, Initial residual = 0.00738988, Final residual = 0.000578755, No Iterations 6
ExecutionTime = 1.14 s  ClockTime = 2 s

scalarTransport execute: age
smoothSolver:  Solving for age, Initial residual = 0.0107177, Final residual = 0.00105844, No Iterations 14

Time = 85

smoothSolver:  Solving for Ux, Initial residual = 0.00876717, Final residual = 0.000601197, No Iterations 6
smoothSolver:  Solving for Uy, Initial residual = 0.00594839, Final residual = 0.000434069, No Iterations 6
GAMG:  Solving for p, Initial residual = 0.00823716, Final residual = 0.00051837, No Iterations 2
time step continuity errors : sum local = 0.00118451, global = 6.62391e-05, cumulative = 0.0187688
smoothSolver:  Solving for omega, Initial residual = 0.000681734, Final residual = 4.83979e-05, No Iterations 5
smoothSolver:  Solving for k, Initial residual = 0.00719416, Final residual = 0.000563536, No Iterations 6
ExecutionTime = 1.15 s  ClockTime = 2 s

scalarTransport execute: age
smoothSolver:  Solving for age, Initial residual = 0.0106333, Final residual = 0.000931631, No Iterations 15

Time = 86

smoothSolver:  Solving for Ux, Initial residual = 0.00857746, Final residual = 0.000587525, No Iterations 6
smoothSolver:  Solving for Uy, Initial residual = 0.00582209, Final residual = 0.000423286, No Iterations 6
GAMG:  Solving for p, Initial residual = 0.00818365, Final residual = 0.000523005, No Iterations 2
time step continuity errors : sum local = 0.00118964, global = 6.07789e-05, cumulative = 0.0188296
smoothSolver:  Solving for omega, Initial residual = 0.000663679, Final residual = 4.70439e-05, No Iterations 5
smoothSolver:  Solving for k, Initial residual = 0.00700319, Final residual = 0.000548696, No Iterations 6
ExecutionTime = 1.16 s  ClockTime = 2 s

scalarTransport execute: age
smoothSolver:  Solving for age, Initial residual = 0.0105853, Final residual = 0.00093054, No Iterations 15

Time = 87

smoothSolver:  Solving for Ux, Initial residual = 0.00836954, Final residual = 0.000572368, No Iterations 6
smoothSolver:  Solving for Uy, Initial residual = 0.00568491, Final residual = 0.000411653, No Iterations 6
GAMG:  Solving for p, Initial residual = 0.00807316, Final residual = 0.000516917, No Iterations 2
time step continuity errors : sum local = 0.00117173, global = 5.44224e-05, cumulative = 0.018884
smoothSolver:  Solving for omega, Initial residual = 0.000647188, Final residual = 4.56786e-05, No Iterations 5
smoothSolver:  Solving for k, Initial residual = 0.00681732, Final residual = 0.000534243, No Iterations 6
ExecutionTime = 1.18 s  ClockTime = 2 s

scalarTransport execute: age
smoothSolver:  Solving for age, Initial residual = 0.0105335, Final residual = 0.00104995, No Iterations 14

Time = 88

smoothSolver:  Solving for Ux, Initial residual = 0.00815805, Final residual = 0.0005571, No Iterations 6
smoothSolver:  Solving for Uy, Initial residual = 0.0055319, Final residual = 0.000399063, No Iterations 6
GAMG:  Solving for p, Initial residual = 0.00787398, Final residual = 0.000508261, No Iterations 2
time step continuity errors : sum local = 0.00114689, global = 4.80561e-05, cumulative = 0.0189321
smoothSolver:  Solving for omega, Initial residual = 0.000629374, Final residual = 4.43277e-05, No Iterations 5
smoothSolver:  Solving for k, Initial residual = 0.00663645, Final residual = 0.000520086, No Iterations 6
ExecutionTime = 1.19 s  ClockTime = 2 s

scalarTransport execute: age
smoothSolver:  Solving for age, Initial residual = 0.0104124, Final residual = 0.000913973, No Iterations 15

Time = 89

smoothSolver:  Solving for Ux, Initial residual = 0.00793959, Final residual = 0.000541625, No Iterations 6
smoothSolver:  Solving for Uy, Initial residual = 0.00536717, Final residual = 0.000385812, No Iterations 6
GAMG:  Solving for p, Initial residual = 0.00765043, Final residual = 0.000502042, No Iterations 2
time step continuity errors : sum local = 0.00112763, global = 4.18231e-05, cumulative = 0.0189739
smoothSolver:  Solving for omega, Initial residual = 0.000610561, Final residual = 4.29614e-05, No Iterations 5
smoothSolver:  Solving for k, Initial residual = 0.00645927, Final residual = 0.00050624, No Iterations 6
ExecutionTime = 1.2 s  ClockTime = 2 s

scalarTransport execute: age
smoothSolver:  Solving for age, Initial residual = 0.0102101, Final residual = 0.00100228, No Iterations 14

Time = 90

smoothSolver:  Solving for Ux, Initial residual = 0.007716, Final residual = 0.000525841, No Iterations 6
smoothSolver:  Solving for Uy, Initial residual = 0.00519627, Final residual = 0.000371902, No Iterations 6
GAMG:  Solving for p, Initial residual = 0.0074076, Final residual = 0.000495533, No Iterations 2
time step continuity errors : sum local = 0.00110839, global = 3.54434e-05, cumulative = 0.0190093
smoothSolver:  Solving for omega, Initial residual = 0.000590139, Final residual = 4.15106e-05, No Iterations 5
smoothSolver:  Solving for k, Initial residual = 0.00628648, Final residual = 0.000492733, No Iterations 6
ExecutionTime = 1.22 s  ClockTime = 2 s

scalarTransport execute: age
smoothSolver:  Solving for age, Initial residual = 0.00982295, Final residual = 0.000928497, No Iterations 14

Time = 91

smoothSolver:  Solving for Ux, Initial residual = 0.00749077, Final residual = 0.000509951, No Iterations 6
smoothSolver:  Solving for Uy, Initial residual = 0.00501636, Final residual = 0.000357258, No Iterations 6
GAMG:  Solving for p, Initial residual = 0.00719308, Final residual = 0.000489845, No Iterations 2
time step continuity errors : sum local = 0.00109138, global = 2.91144e-05, cumulative = 0.0190385
smoothSolver:  Solving for omega, Initial residual = 0.000571103, Final residual = 4.01668e-05, No Iterations 5
smoothSolver:  Solving for k, Initial residual = 0.00611675, Final residual = 0.000479465, No Iterations 6
ExecutionTime = 1.23 s  ClockTime = 2 s

scalarTransport execute: age
smoothSolver:  Solving for age, Initial residual = 0.00939809, Final residual = 0.000841665, No Iterations 14

Time = 92

smoothSolver:  Solving for Ux, Initial residual = 0.00726171, Final residual = 0.000493852, No Iterations 6
smoothSolver:  Solving for Uy, Initial residual = 0.00482821, Final residual = 0.000342131, No Iterations 6
GAMG:  Solving for p, Initial residual = 0.00701941, Final residual = 0.000483276, No Iterations 2
time step continuity errors : sum local = 0.0010726, global = 2.19117e-05, cumulative = 0.0190604
smoothSolver:  Solving for omega, Initial residual = 0.000553398, Final residual = 3.8881e-05, No Iterations 5
smoothSolver:  Solving for k, Initial residual = 0.00595062, Final residual = 0.000466421, No Iterations 6
ExecutionTime = 1.24 s  ClockTime = 2 s

scalarTransport execute: age
smoothSolver:  Solving for age, Initial residual = 0.00888129, Final residual = 0.000874658, No Iterations 13

Time = 93

smoothSolver:  Solving for Ux, Initial residual = 0.00702873, Final residual = 0.000477496, No Iterations 6
smoothSolver:  Solving for Uy, Initial residual = 0.00463589, Final residual = 0.000326763, No Iterations 6
GAMG:  Solving for p, Initial residual = 0.00685296, Final residual = 0.000474939, No Iterations 2
time step continuity errors : sum local = 0.00105025, global = 1.59579e-05, cumulative = 0.0190763
smoothSolver:  Solving for omega, Initial residual = 0.00053552, Final residual = 3.7614e-05, No Iterations 5
smoothSolver:  Solving for k, Initial residual = 0.00578746, Final residual = 0.000453564, No Iterations 6
ExecutionTime = 1.26 s  ClockTime = 2 s

scalarTransport execute: age
smoothSolver:  Solving for age, Initial residual = 0.00840565, Final residual = 0.000783464, No Iterations 13

Time = 94

smoothSolver:  Solving for Ux, Initial residual = 0.00678905, Final residual = 0.000460858, No Iterations 6
smoothSolver:  Solving for Uy, Initial residual = 0.00444753, Final residual = 0.000311481, No Iterations 6
GAMG:  Solving for p, Initial residual = 0.0067237, Final residual = 0.000464719, No Iterations 2
time step continuity errors : sum local = 0.00102429, global = 1.08796e-05, cumulative = 0.0190872
smoothSolver:  Solving for omega, Initial residual = 0.000513635, Final residual = 3.62682e-05, No Iterations 5
smoothSolver:  Solving for k, Initial residual = 0.00562857, Final residual = 0.000440882, No Iterations 6
ExecutionTime = 1.27 s  ClockTime = 2 s

scalarTransport execute: age
smoothSolver:  Solving for age, Initial residual = 0.00790568, Final residual = 0.000696505, No Iterations 13

Time = 95

smoothSolver:  Solving for Ux, Initial residual = 0.00655043, Final residual = 0.00044397, No Iterations 6
smoothSolver:  Solving for Uy, Initial residual = 0.00426356, Final residual = 0.000296397, No Iterations 6
GAMG:  Solving for p, Initial residual = 0.00658974, Final residual = 0.000454417, No Iterations 2
time step continuity errors : sum local = 0.000997925, global = 1.12449e-05, cumulative = 0.0190984
smoothSolver:  Solving for omega, Initial residual = 0.00049882, Final residual = 3.51932e-05, No Iterations 5
smoothSolver:  Solving for k, Initial residual = 0.00547024, Final residual = 0.0004282, No Iterations 6
ExecutionTime = 1.28 s  ClockTime = 2 s

scalarTransport execute: age
smoothSolver:  Solving for age, Initial residual = 0.00748554, Final residual = 0.000710762, No Iterations 12

Time = 96

[...]

smoothSolver:  Solving for Ux, Initial residual = 4.39143e-07, Final residual = 3.67328e-08, No Iterations 5
smoothSolver:  Solving for Uy, Initial residual = 2.69875e-07, Final residual = 2.28111e-08, No Iterations 5
GAMG:  Solving for p, Initial residual = 1.24309e-06, Final residual = 6.21281e-08, No Iterations 2
time step continuity errors : sum local = 1.43363e-07, global = -1.67788e-09, cumulative = 0.0201937
smoothSolver:  Solving for omega, Initial residual = 3.70924e-08, Final residual = 9.72485e-09, No Iterations 2
smoothSolver:  Solving for k, Initial residual = 6.1512e-08, Final residual = 8.31817e-09, No Iterations 4
ExecutionTime = 8.17 s  ClockTime = 9 s

scalarTransport execute: age
smoothSolver:  Solving for age, Initial residual = 0.00024607, Final residual = 2.26317e-05, No Iterations 15

Time = 640

smoothSolver:  Solving for Ux, Initial residual = 4.35167e-07, Final residual = 3.64096e-08, No Iterations 5
smoothSolver:  Solving for Uy, Initial residual = 2.67083e-07, Final residual = 2.25886e-08, No Iterations 5
GAMG:  Solving for p, Initial residual = 1.23189e-06, Final residual = 6.12469e-08, No Iterations 2
time step continuity errors : sum local = 1.41329e-07, global = -1.60305e-09, cumulative = 0.0201937
smoothSolver:  Solving for omega, Initial residual = 3.70314e-08, Final residual = 9.67731e-09, No Iterations 2
smoothSolver:  Solving for k, Initial residual = 6.06266e-08, Final residual = 8.18924e-09, No Iterations 4
ExecutionTime = 8.18 s  ClockTime = 9 s

scalarTransport execute: age
smoothSolver:  Solving for age, Initial residual = 0.000245656, Final residual = 2.25933e-05, No Iterations 15

Time = 641

smoothSolver:  Solving for Ux, Initial residual = 4.30968e-07, Final residual = 3.60436e-08, No Iterations 5
smoothSolver:  Solving for Uy, Initial residual = 2.64385e-07, Final residual = 2.23629e-08, No Iterations 5
GAMG:  Solving for p, Initial residual = 1.22082e-06, Final residual = 6.05846e-08, No Iterations 2
time step continuity errors : sum local = 1.39801e-07, global = -1.46888e-09, cumulative = 0.0201937
smoothSolver:  Solving for omega, Initial residual = 3.66715e-08, Final residual = 9.62379e-09, No Iterations 2
smoothSolver:  Solving for k, Initial residual = 5.97746e-08, Final residual = 8.06312e-09, No Iterations 4
ExecutionTime = 8.2 s  ClockTime = 9 s

scalarTransport execute: age
smoothSolver:  Solving for age, Initial residual = 0.000245243, Final residual = 2.25552e-05, No Iterations 15

Time = 642

smoothSolver:  Solving for Ux, Initial residual = 4.26769e-07, Final residual = 3.56807e-08, No Iterations 5
smoothSolver:  Solving for Uy, Initial residual = 2.6179e-07, Final residual = 2.21507e-08, No Iterations 5
GAMG:  Solving for p, Initial residual = 1.2103e-06, Final residual = 6.0021e-08, No Iterations 2
time step continuity errors : sum local = 1.385e-07, global = -1.36528e-09, cumulative = 0.0201937
smoothSolver:  Solving for omega, Initial residual = 3.64263e-08, Final residual = 9.56941e-09, No Iterations 2
smoothSolver:  Solving for k, Initial residual = 5.89511e-08, Final residual = 7.93919e-09, No Iterations 4
ExecutionTime = 8.21 s  ClockTime = 9 s

scalarTransport execute: age
smoothSolver:  Solving for age, Initial residual = 0.000244831, Final residual = 2.25172e-05, No Iterations 15

Time = 643

smoothSolver:  Solving for Ux, Initial residual = 4.22559e-07, Final residual = 3.53211e-08, No Iterations 5
smoothSolver:  Solving for Uy, Initial residual = 2.59244e-07, Final residual = 2.19411e-08, No Iterations 5
GAMG:  Solving for p, Initial residual = 1.20018e-06, Final residual = 5.96353e-08, No Iterations 2
time step continuity errors : sum local = 1.3761e-07, global = -1.75116e-09, cumulative = 0.0201937
smoothSolver:  Solving for omega, Initial residual = 3.60403e-08, Final residual = 9.50648e-09, No Iterations 2
smoothSolver:  Solving for k, Initial residual = 5.81519e-08, Final residual = 7.81801e-09, No Iterations 4
ExecutionTime = 8.22 s  ClockTime = 9 s

scalarTransport execute: age
smoothSolver:  Solving for age, Initial residual = 0.000244421, Final residual = 2.24795e-05, No Iterations 15

Time = 644

smoothSolver:  Solving for Ux, Initial residual = 4.18604e-07, Final residual = 3.49946e-08, No Iterations 5
smoothSolver:  Solving for Uy, Initial residual = 2.56605e-07, Final residual = 2.1726e-08, No Iterations 5
GAMG:  Solving for p, Initial residual = 1.18942e-06, Final residual = 5.87439e-08, No Iterations 2
time step continuity errors : sum local = 1.35553e-07, global = -1.73483e-09, cumulative = 0.0201937
smoothSolver:  Solving for omega, Initial residual = 3.59446e-08, Final residual = 9.44577e-09, No Iterations 2
smoothSolver:  Solving for k, Initial residual = 5.73289e-08, Final residual = 7.6979e-09, No Iterations 4
ExecutionTime = 8.23 s  ClockTime = 9 s

scalarTransport execute: age
smoothSolver:  Solving for age, Initial residual = 0.000244013, Final residual = 2.2442e-05, No Iterations 15

Time = 645

smoothSolver:  Solving for Ux, Initial residual = 4.14378e-07, Final residual = 3.46249e-08, No Iterations 5
smoothSolver:  Solving for Uy, Initial residual = 2.53987e-07, Final residual = 2.15064e-08, No Iterations 5
GAMG:  Solving for p, Initial residual = 1.17873e-06, Final residual = 5.81173e-08, No Iterations 2
time step continuity errors : sum local = 1.34108e-07, global = -1.64214e-09, cumulative = 0.0201937
smoothSolver:  Solving for omega, Initial residual = 3.55708e-08, Final residual = 9.38188e-09, No Iterations 2
smoothSolver:  Solving for k, Initial residual = 5.65299e-08, Final residual = 7.57971e-09, No Iterations 4
ExecutionTime = 8.25 s  ClockTime = 9 s

scalarTransport execute: age
smoothSolver:  Solving for age, Initial residual = 0.000243606, Final residual = 2.24048e-05, No Iterations 15

Time = 646

smoothSolver:  Solving for Ux, Initial residual = 4.10158e-07, Final residual = 3.42586e-08, No Iterations 5
smoothSolver:  Solving for Uy, Initial residual = 2.51496e-07, Final residual = 2.12989e-08, No Iterations 5
GAMG:  Solving for p, Initial residual = 1.1685e-06, Final residual = 5.75973e-08, No Iterations 2
time step continuity errors : sum local = 1.32908e-07, global = -1.56978e-09, cumulative = 0.0201937
smoothSolver:  Solving for omega, Initial residual = 3.53042e-08, Final residual = 9.31852e-09, No Iterations 2
smoothSolver:  Solving for k, Initial residual = 5.57513e-08, Final residual = 7.46318e-09, No Iterations 4
ExecutionTime = 8.26 s  ClockTime = 9 s

scalarTransport execute: age
smoothSolver:  Solving for age, Initial residual = 0.000243201, Final residual = 2.23676e-05, No Iterations 15

Time = 647

smoothSolver:  Solving for Ux, Initial residual = 4.05948e-07, Final residual = 3.38967e-08, No Iterations 5
smoothSolver:  Solving for Uy, Initial residual = 2.49048e-07, Final residual = 2.10945e-08, No Iterations 5
GAMG:  Solving for p, Initial residual = 1.15842e-06, Final residual = 5.71188e-08, No Iterations 2
time step continuity errors : sum local = 1.31803e-07, global = -1.49825e-09, cumulative = 0.0201937
smoothSolver:  Solving for omega, Initial residual = 3.50035e-08, Final residual = 9.25096e-09, No Iterations 2
smoothSolver:  Solving for k, Initial residual = 5.49718e-08, Final residual = 7.34833e-09, No Iterations 4
ExecutionTime = 8.27 s  ClockTime = 9 s

scalarTransport execute: age
smoothSolver:  Solving for age, Initial residual = 0.000242796, Final residual = 2.23307e-05, No Iterations 15

Time = 648

smoothSolver:  Solving for Ux, Initial residual = 4.018e-07, Final residual = 3.35397e-08, No Iterations 5
smoothSolver:  Solving for Uy, Initial residual = 2.466e-07, Final residual = 2.08891e-08, No Iterations 5
GAMG:  Solving for p, Initial residual = 1.14815e-06, Final residual = 5.662e-08, No Iterations 2
time step continuity errors : sum local = 1.30652e-07, global = -1.45381e-09, cumulative = 0.0201937
smoothSolver:  Solving for omega, Initial residual = 3.4708e-08, Final residual = 9.18196e-09, No Iterations 2
smoothSolver:  Solving for k, Initial residual = 5.42028e-08, Final residual = 7.23513e-09, No Iterations 4
ExecutionTime = 8.28 s  ClockTime = 9 s

scalarTransport execute: age
smoothSolver:  Solving for age, Initial residual = 0.000242393, Final residual = 2.22938e-05, No Iterations 15

Time = 649

smoothSolver:  Solving for Ux, Initial residual = 3.97689e-07, Final residual = 3.31871e-08, No Iterations 5
smoothSolver:  Solving for Uy, Initial residual = 2.4412e-07, Final residual = 2.06828e-08, No Iterations 5
GAMG:  Solving for p, Initial residual = 1.13759e-06, Final residual = 5.62083e-08, No Iterations 2
time step continuity errors : sum local = 1.29702e-07, global = -1.86613e-09, cumulative = 0.0201937
smoothSolver:  Solving for omega, Initial residual = 3.43289e-08, Final residual = 9.10766e-09, No Iterations 2
smoothSolver:  Solving for k, Initial residual = 5.34562e-08, Final residual = 7.12411e-09, No Iterations 4
ExecutionTime = 8.29 s  ClockTime = 9 s

scalarTransport execute: age
smoothSolver:  Solving for age, Initial residual = 0.000241991, Final residual = 2.22571e-05, No Iterations 15

Time = 650

smoothSolver:  Solving for Ux, Initial residual = 3.9381e-07, Final residual = 3.28661e-08, No Iterations 5
smoothSolver:  Solving for Uy, Initial residual = 2.41597e-07, Final residual = 2.04734e-08, No Iterations 5
GAMG:  Solving for p, Initial residual = 1.12649e-06, Final residual = 5.529e-08, No Iterations 2
time step continuity errors : sum local = 1.27583e-07, global = -1.87799e-09, cumulative = 0.0201937
smoothSolver:  Solving for omega, Initial residual = 3.41899e-08, Final residual = 9.03525e-09, No Iterations 2
smoothSolver:  Solving for k, Initial residual = 5.26777e-08, Final residual = 7.01389e-09, No Iterations 4
ExecutionTime = 8.31 s  ClockTime = 9 s

scalarTransport execute: age
smoothSolver:  Solving for age, Initial residual = 0.000241591, Final residual = 2.22204e-05, No Iterations 15

Time = 651

smoothSolver:  Solving for Ux, Initial residual = 3.89676e-07, Final residual = 3.25036e-08, No Iterations 5
smoothSolver:  Solving for Uy, Initial residual = 2.39118e-07, Final residual = 2.0262e-08, No Iterations 5
GAMG:  Solving for p, Initial residual = 1.1156e-06, Final residual = 5.46401e-08, No Iterations 2
time step continuity errors : sum local = 1.26084e-07, global = -1.81183e-09, cumulative = 0.0201937
smoothSolver:  Solving for omega, Initial residual = 3.37971e-08, Final residual = 8.96147e-09, No Iterations 2
smoothSolver:  Solving for k, Initial residual = 5.19311e-08, Final residual = 6.90546e-09, No Iterations 4
ExecutionTime = 8.32 s  ClockTime = 9 s

scalarTransport execute: age
smoothSolver:  Solving for age, Initial residual = 0.000241191, Final residual = 2.21839e-05, No Iterations 15

Time = 652

smoothSolver:  Solving for Ux, Initial residual = 3.85527e-07, Final residual = 3.21441e-08, No Iterations 5
smoothSolver:  Solving for Uy, Initial residual = 2.36726e-07, Final residual = 2.00606e-08, No Iterations 5
GAMG:  Solving for p, Initial residual = 1.10519e-06, Final residual = 5.41072e-08, No Iterations 2
time step continuity errors : sum local = 1.24854e-07, global = -1.75771e-09, cumulative = 0.0201937
smoothSolver:  Solving for omega, Initial residual = 3.3508e-08, Final residual = 8.88916e-09, No Iterations 2
smoothSolver:  Solving for k, Initial residual = 5.11997e-08, Final residual = 6.79856e-09, No Iterations 4
ExecutionTime = 8.33 s  ClockTime = 9 s

scalarTransport execute: age
smoothSolver:  Solving for age, Initial residual = 0.000240792, Final residual = 2.21474e-05, No Iterations 15

Time = 653

smoothSolver:  Solving for Ux, Initial residual = 3.81384e-07, Final residual = 3.17886e-08, No Iterations 5
smoothSolver:  Solving for Uy, Initial residual = 2.34344e-07, Final residual = 1.986e-08, No Iterations 5
GAMG:  Solving for p, Initial residual = 1.09498e-06, Final residual = 5.36227e-08, No Iterations 2
time step continuity errors : sum local = 1.23736e-07, global = -1.70054e-09, cumulative = 0.0201937
smoothSolver:  Solving for omega, Initial residual = 3.31892e-08, Final residual = 8.81376e-09, No Iterations 2
smoothSolver:  Solving for k, Initial residual = 5.0468e-08, Final residual = 6.69311e-09, No Iterations 4
ExecutionTime = 8.34 s  ClockTime = 9 s

scalarTransport execute: age
smoothSolver:  Solving for age, Initial residual = 0.000240394, Final residual = 2.2111e-05, No Iterations 15

Time = 654

smoothSolver:  Solving for Ux, Initial residual = 3.77286e-07, Final residual = 3.14377e-08, No Iterations 5
smoothSolver:  Solving for Uy, Initial residual = 2.31933e-07, Final residual = 1.96563e-08, No Iterations 5
GAMG:  Solving for p, Initial residual = 1.08453e-06, Final residual = 5.31214e-08, No Iterations 2
time step continuity errors : sum local = 1.22579e-07, global = -1.66395e-09, cumulative = 0.0201937
smoothSolver:  Solving for omega, Initial residual = 3.28776e-08, Final residual = 8.7378e-09, No Iterations 2
smoothSolver:  Solving for k, Initial residual = 4.97457e-08, Final residual = 6.58937e-09, No Iterations 4
ExecutionTime = 8.35 s  ClockTime = 9 s

scalarTransport execute: age
smoothSolver:  Solving for age, Initial residual = 0.000239997, Final residual = 2.20746e-05, No Iterations 15

Time = 655

smoothSolver:  Solving for Ux, Initial residual = 3.73215e-07, Final residual = 3.10912e-08, No Iterations 5
smoothSolver:  Solving for Uy, Initial residual = 2.29473e-07, Final residual = 1.94506e-08, No Iterations 5
GAMG:  Solving for p, Initial residual = 1.07383e-06, Final residual = 5.25864e-08, No Iterations 2
time step continuity errors : sum local = 1.21345e-07, global = -1.63327e-09, cumulative = 0.0201937
smoothSolver:  Solving for omega, Initial residual = 3.25668e-08, Final residual = 8.66027e-09, No Iterations 2
smoothSolver:  Solving for k, Initial residual = 4.90279e-08, Final residual = 6.48714e-09, No Iterations 4
ExecutionTime = 8.37 s  ClockTime = 9 s

scalarTransport execute: age
smoothSolver:  Solving for age, Initial residual = 0.000239601, Final residual = 2.20383e-05, No Iterations 15

Time = 656

smoothSolver:  Solving for Ux, Initial residual = 3.69175e-07, Final residual = 3.0748e-08, No Iterations 5
smoothSolver:  Solving for Uy, Initial residual = 2.27023e-07, Final residual = 1.92443e-08, No Iterations 5
GAMG:  Solving for p, Initial residual = 1.06303e-06, Final residual = 5.20257e-08, No Iterations 2
time step continuity errors : sum local = 1.20051e-07, global = -1.61553e-09, cumulative = 0.0201937
smoothSolver:  Solving for omega, Initial residual = 3.2248e-08, Final residual = 8.58166e-09, No Iterations 2
smoothSolver:  Solving for k, Initial residual = 4.83212e-08, Final residual = 6.38641e-09, No Iterations 4
ExecutionTime = 8.38 s  ClockTime = 9 s

scalarTransport execute: age
smoothSolver:  Solving for age, Initial residual = 0.000239205, Final residual = 2.20021e-05, No Iterations 15

Time = 657

smoothSolver:  Solving for Ux, Initial residual = 3.65157e-07, Final residual = 3.04073e-08, No Iterations 5
smoothSolver:  Solving for Uy, Initial residual = 2.24565e-07, Final residual = 1.90381e-08, No Iterations 5
GAMG:  Solving for p, Initial residual = 1.05221e-06, Final residual = 5.14528e-08, No Iterations 2
time step continuity errors : sum local = 1.18729e-07, global = -1.60766e-09, cumulative = 0.0201937
smoothSolver:  Solving for omega, Initial residual = 3.19317e-08, Final residual = 8.50258e-09, No Iterations 2
smoothSolver:  Solving for k, Initial residual = 4.7623e-08, Final residual = 6.28742e-09, No Iterations 4
ExecutionTime = 8.39 s  ClockTime = 9 s

scalarTransport execute: age
smoothSolver:  Solving for age, Initial residual = 0.000238811, Final residual = 2.19659e-05, No Iterations 15

Time = 658

smoothSolver:  Solving for Ux, Initial residual = 3.61146e-07, Final residual = 3.0068e-08, No Iterations 5
smoothSolver:  Solving for Uy, Initial residual = 2.22107e-07, Final residual = 1.88313e-08, No Iterations 5
GAMG:  Solving for p, Initial residual = 1.04146e-06, Final residual = 5.08756e-08, No Iterations 2
time step continuity errors : sum local = 1.17397e-07, global = -1.61083e-09, cumulative = 0.0201937
smoothSolver:  Solving for omega, Initial residual = 3.16115e-08, Final residual = 8.42321e-09, No Iterations 2
smoothSolver:  Solving for k, Initial residual = 4.69334e-08, Final residual = 6.1899e-09, No Iterations 4
ExecutionTime = 8.4 s  ClockTime = 9 s

scalarTransport execute: age
smoothSolver:  Solving for age, Initial residual = 0.000238417, Final residual = 2.19298e-05, No Iterations 15

Time = 659

smoothSolver:  Solving for Ux, Initial residual = 3.57146e-07, Final residual = 2.97296e-08, No Iterations 5
smoothSolver:  Solving for Uy, Initial residual = 2.19643e-07, Final residual = 1.86242e-08, No Iterations 5
GAMG:  Solving for p, Initial residual = 1.03075e-06, Final residual = 5.02995e-08, No Iterations 2
time step continuity errors : sum local = 1.16067e-07, global = -1.62245e-09, cumulative = 0.0201937
smoothSolver:  Solving for omega, Initial residual = 3.12945e-08, Final residual = 8.34391e-09, No Iterations 2
smoothSolver:  Solving for k, Initial residual = 4.62546e-08, Final residual = 9.90914e-09, No Iterations 3
ExecutionTime = 8.41 s  ClockTime = 9 s

scalarTransport execute: age
smoothSolver:  Solving for age, Initial residual = 0.000238025, Final residual = 2.18938e-05, No Iterations 15

Time = 660

smoothSolver:  Solving for Ux, Initial residual = 3.53086e-07, Final residual = 2.93897e-08, No Iterations 5
smoothSolver:  Solving for Uy, Initial residual = 2.17242e-07, Final residual = 1.84236e-08, No Iterations 5
GAMG:  Solving for p, Initial residual = 1.01949e-06, Final residual = 4.97265e-08, No Iterations 2
time step continuity errors : sum local = 1.14745e-07, global = -1.64076e-09, cumulative = 0.0201937
smoothSolver:  Solving for omega, Initial residual = 3.08845e-08, Final residual = 8.25983e-09, No Iterations 2
smoothSolver:  Solving for k, Initial residual = 4.57889e-08, Final residual = 9.79829e-09, No Iterations 3
ExecutionTime = 8.43 s  ClockTime = 9 s

scalarTransport execute: age
smoothSolver:  Solving for age, Initial residual = 0.000237634, Final residual = 2.18579e-05, No Iterations 15

Time = 661

smoothSolver:  Solving for Ux, Initial residual = 3.49046e-07, Final residual = 2.90498e-08, No Iterations 5
smoothSolver:  Solving for Uy, Initial residual = 2.14772e-07, Final residual = 1.82169e-08, No Iterations 5
GAMG:  Solving for p, Initial residual = 1.00852e-06, Final residual = 4.9157e-08, No Iterations 2
time step continuity errors : sum local = 1.13431e-07, global = -1.66539e-09, cumulative = 0.0201937
smoothSolver:  Solving for omega, Initial residual = 3.05473e-08, Final residual = 8.1811e-09, No Iterations 2
smoothSolver:  Solving for k, Initial residual = 4.53194e-08, Final residual = 9.68925e-09, No Iterations 3
ExecutionTime = 8.44 s  ClockTime = 9 s

scalarTransport execute: age
smoothSolver:  Solving for age, Initial residual = 0.000237244, Final residual = 2.18221e-05, No Iterations 15

Time = 662

smoothSolver:  Solving for Ux, Initial residual = 3.45007e-07, Final residual = 2.87093e-08, No Iterations 5
smoothSolver:  Solving for Uy, Initial residual = 2.12273e-07, Final residual = 1.80078e-08, No Iterations 5
GAMG:  Solving for p, Initial residual = 9.97799e-07, Final residual = 4.85898e-08, No Iterations 2
time step continuity errors : sum local = 1.12122e-07, global = -1.69314e-09, cumulative = 0.0201937
smoothSolver:  Solving for omega, Initial residual = 3.02271e-08, Final residual = 8.10416e-09, No Iterations 2
smoothSolver:  Solving for k, Initial residual = 4.48485e-08, Final residual = 9.58171e-09, No Iterations 3
ExecutionTime = 8.45 s  ClockTime = 9 s


SIMPLE solution converged in 662 iterations

scalarTransport execute: age
smoothSolver:  Solving for age, Initial residual = 0.000236854, Final residual = 2.17863e-05, No Iterations 15

End

