/*---------------------------------------------------------------------------*\
| =========                 |                                                 |
| \\      /  F ield         | OpenFOAM: The Open Source CFD Toolbox           |
|  \\    /   O peration     | Version:  v2012                                 |
|   \\  /    A nd           | Website:  www.openfoam.com                      |
|    \\/     M anipulation  |                                                 |
\*---------------------------------------------------------------------------*/
Build  : _7bdb509494-20201222 OPENFOAM=2012
Arch   : "LSB;label=32;scalar=64"
Exec   : simpleFoam
Date   : Feb 22 2023
Time   : 19:42:01
Host   : johnsDesktop
PID    : 8988
I/O    : uncollated
Case   : /home/john/of_runs/cases/0_29_6-00400_9
nProcs : 1
trapFpe: Floating point exception trapping enabled (FOAM_SIGFPE).
fileModificationChecking : Monitoring run-time modified files using timeStampMaster (fileModificationSkew 5, maxFileModificationPolls 20)
allowSystemOperations : Allowing user-supplied system call operations

// * * * * * * * * * * * * * * * * * * * * * * * * * * * * * * * * * * * * * //
Create time

Create mesh for time = 0


SIMPLE: convergence criteria
    field p	 tolerance 1e-06
    field U	 tolerance 1e-06
    field "(k|epsilon|omega|f|v2|age)"	 tolerance 1e-05

Reading field p

Reading field U

Reading/calculating face flux field phi

Selecting incompressible transport model Newtonian
Selecting turbulence model type RAS
Selecting RAS turbulence model kOmegaSST
Selecting patchDistMethod meshWave
RAS
{
    RASModel        kOmegaSST;
    turbulence      on;
    printCoeffs     on;
    alphaK1         0.85;
    alphaK2         1;
    alphaOmega1     0.5;
    alphaOmega2     0.856;
    gamma1          0.555556;
    gamma2          0.44;
    beta1           0.075;
    beta2           0.0828;
    betaStar        0.09;
    a1              0.31;
    b1              1;
    c1              10;
    F3              false;
    decayControl    false;
    kInf            0;
    omegaInf        0;
}

No MRF models present

No finite volume options present

Starting time loop

Selecting finite volume options type scalarSemiImplicitSource
    Source: unitySource
    - selecting all cells
    - selected 6084 cell(s) with volume 0.031855
Time = 1

smoothSolver:  Solving for Ux, Initial residual = 0, Final residual = 0, No Iterations 0
smoothSolver:  Solving for Uy, Initial residual = 1, Final residual = 0.0871976, No Iterations 2
GAMG:  Solving for p, Initial residual = 1, Final residual = 0.0712625, No Iterations 7
time step continuity errors : sum local = 0.00447418, global = -0.000979348, cumulative = -0.000979348
smoothSolver:  Solving for omega, Initial residual = 0.287592, Final residual = 0.0121537, No Iterations 3
smoothSolver:  Solving for k, Initial residual = 1, Final residual = 0.0800523, No Iterations 3
ExecutionTime = 0.06 s  ClockTime = 0 s

scalarTransport execute: age
smoothSolver:  Solving for age, Initial residual = 1, Final residual = 0.0913181, No Iterations 4

Time = 2

smoothSolver:  Solving for Ux, Initial residual = 0.564706, Final residual = 0.0486635, No Iterations 6
smoothSolver:  Solving for Uy, Initial residual = 0.277692, Final residual = 0.020365, No Iterations 6
GAMG:  Solving for p, Initial residual = 0.0471338, Final residual = 0.00187745, No Iterations 4
time step continuity errors : sum local = 0.0217413, global = 0.00349354, cumulative = 0.00251419
smoothSolver:  Solving for omega, Initial residual = 0.261929, Final residual = 0.0255669, No Iterations 3
smoothSolver:  Solving for k, Initial residual = 0.611194, Final residual = 0.0579101, No Iterations 4
ExecutionTime = 0.07 s  ClockTime = 0 s

scalarTransport execute: age
smoothSolver:  Solving for age, Initial residual = 0.594427, Final residual = 0.0593086, No Iterations 4

Time = 3

smoothSolver:  Solving for Ux, Initial residual = 0.218629, Final residual = 0.014655, No Iterations 6
smoothSolver:  Solving for Uy, Initial residual = 0.0952337, Final residual = 0.008539, No Iterations 5
GAMG:  Solving for p, Initial residual = 0.05401, Final residual = 0.00438701, No Iterations 3
time step continuity errors : sum local = 0.0209371, global = 0.00233047, cumulative = 0.00484467
smoothSolver:  Solving for omega, Initial residual = 0.257859, Final residual = 0.0252048, No Iterations 4
smoothSolver:  Solving for k, Initial residual = 0.519372, Final residual = 0.03934, No Iterations 5
ExecutionTime = 0.08 s  ClockTime = 0 s

scalarTransport execute: age
smoothSolver:  Solving for age, Initial residual = 0.407095, Final residual = 0.0365122, No Iterations 5

Time = 4

smoothSolver:  Solving for Ux, Initial residual = 0.108608, Final residual = 0.00799492, No Iterations 4
smoothSolver:  Solving for Uy, Initial residual = 0.0485803, Final residual = 0.00353541, No Iterations 5
GAMG:  Solving for p, Initial residual = 0.0778301, Final residual = 0.00347923, No Iterations 3
time step continuity errors : sum local = 0.0092021, global = 0.000714995, cumulative = 0.00555966
smoothSolver:  Solving for omega, Initial residual = 0.144512, Final residual = 0.0101247, No Iterations 5
smoothSolver:  Solving for k, Initial residual = 0.446686, Final residual = 0.0382269, No Iterations 5
ExecutionTime = 0.09 s  ClockTime = 0 s

scalarTransport execute: age
smoothSolver:  Solving for age, Initial residual = 0.316736, Final residual = 0.0273229, No Iterations 3

Time = 5

smoothSolver:  Solving for Ux, Initial residual = 0.0686004, Final residual = 0.00575002, No Iterations 5
smoothSolver:  Solving for Uy, Initial residual = 0.0298568, Final residual = 0.00212979, No Iterations 5
GAMG:  Solving for p, Initial residual = 0.0715024, Final residual = 0.00303668, No Iterations 2
time step continuity errors : sum local = 0.00687897, global = 0.000926071, cumulative = 0.00648573
smoothSolver:  Solving for omega, Initial residual = 0.100406, Final residual = 0.00771076, No Iterations 5
smoothSolver:  Solving for k, Initial residual = 0.357289, Final residual = 0.0330534, No Iterations 5
ExecutionTime = 0.1 s  ClockTime = 0 s

scalarTransport execute: age
smoothSolver:  Solving for age, Initial residual = 0.249642, Final residual = 0.0204577, No Iterations 3

Time = 6

smoothSolver:  Solving for Ux, Initial residual = 0.0504403, Final residual = 0.00353502, No Iterations 6
smoothSolver:  Solving for Uy, Initial residual = 0.0235933, Final residual = 0.00187409, No Iterations 5
GAMG:  Solving for p, Initial residual = 0.0578908, Final residual = 0.00338361, No Iterations 2
time step continuity errors : sum local = 0.00782085, global = 0.000474464, cumulative = 0.0069602
smoothSolver:  Solving for omega, Initial residual = 0.0788475, Final residual = 0.00648216, No Iterations 5
smoothSolver:  Solving for k, Initial residual = 0.284537, Final residual = 0.0279753, No Iterations 5
ExecutionTime = 0.12 s  ClockTime = 0 s

scalarTransport execute: age
smoothSolver:  Solving for age, Initial residual = 0.192149, Final residual = 0.0162605, No Iterations 3

Time = 7

smoothSolver:  Solving for Ux, Initial residual = 0.0434663, Final residual = 0.00307966, No Iterations 6
smoothSolver:  Solving for Uy, Initial residual = 0.0198887, Final residual = 0.00170382, No Iterations 5
GAMG:  Solving for p, Initial residual = 0.0477334, Final residual = 0.00408847, No Iterations 2
time step continuity errors : sum local = 0.00962326, global = -0.000171041, cumulative = 0.00678916
smoothSolver:  Solving for omega, Initial residual = 0.0601503, Final residual = 0.00529857, No Iterations 5
smoothSolver:  Solving for k, Initial residual = 0.235181, Final residual = 0.0153255, No Iterations 6
ExecutionTime = 0.13 s  ClockTime = 0 s

scalarTransport execute: age
smoothSolver:  Solving for age, Initial residual = 0.15521, Final residual = 0.0129859, No Iterations 3

Time = 8

smoothSolver:  Solving for Ux, Initial residual = 0.035168, Final residual = 0.00343315, No Iterations 5
smoothSolver:  Solving for Uy, Initial residual = 0.0187508, Final residual = 0.00174604, No Iterations 5
GAMG:  Solving for p, Initial residual = 0.0395135, Final residual = 0.0034751, No Iterations 2
time step continuity errors : sum local = 0.00856418, global = -0.000439106, cumulative = 0.00635005
smoothSolver:  Solving for omega, Initial residual = 0.0484376, Final residual = 0.00441471, No Iterations 5
smoothSolver:  Solving for k, Initial residual = 0.200062, Final residual = 0.0135129, No Iterations 6
ExecutionTime = 0.14 s  ClockTime = 0 s

scalarTransport execute: age
smoothSolver:  Solving for age, Initial residual = 0.128241, Final residual = 0.0107804, No Iterations 3

Time = 9

smoothSolver:  Solving for Ux, Initial residual = 0.0324459, Final residual = 0.00318274, No Iterations 5
smoothSolver:  Solving for Uy, Initial residual = 0.0170081, Final residual = 0.00158764, No Iterations 5
GAMG:  Solving for p, Initial residual = 0.0328485, Final residual = 0.00218057, No Iterations 2
time step continuity errors : sum local = 0.0057573, global = -0.00047685, cumulative = 0.0058732
smoothSolver:  Solving for omega, Initial residual = 0.0401521, Final residual = 0.00376188, No Iterations 5
smoothSolver:  Solving for k, Initial residual = 0.173182, Final residual = 0.0120602, No Iterations 6
ExecutionTime = 0.15 s  ClockTime = 0 s

scalarTransport execute: age
smoothSolver:  Solving for age, Initial residual = 0.107436, Final residual = 0.00900207, No Iterations 3

Time = 10

smoothSolver:  Solving for Ux, Initial residual = 0.0313956, Final residual = 0.00212015, No Iterations 6
smoothSolver:  Solving for Uy, Initial residual = 0.01593, Final residual = 0.00147598, No Iterations 5
GAMG:  Solving for p, Initial residual = 0.0273246, Final residual = 0.000761281, No Iterations 2
time step continuity errors : sum local = 0.00209924, global = -0.000466963, cumulative = 0.00540624
smoothSolver:  Solving for omega, Initial residual = 0.0335512, Final residual = 0.00323265, No Iterations 5
smoothSolver:  Solving for k, Initial residual = 0.152255, Final residual = 0.0108711, No Iterations 6
ExecutionTime = 0.16 s  ClockTime = 0 s

scalarTransport execute: age
smoothSolver:  Solving for age, Initial residual = 0.090868, Final residual = 0.00746895, No Iterations 3

Time = 11

smoothSolver:  Solving for Ux, Initial residual = 0.0290862, Final residual = 0.00202826, No Iterations 6
smoothSolver:  Solving for Uy, Initial residual = 0.0150121, Final residual = 0.00145313, No Iterations 5
GAMG:  Solving for p, Initial residual = 0.0236945, Final residual = 0.000876675, No Iterations 2
time step continuity errors : sum local = 0.00245087, global = -0.00039514, cumulative = 0.0050111
smoothSolver:  Solving for omega, Initial residual = 0.0283726, Final residual = 0.0027929, No Iterations 5
smoothSolver:  Solving for k, Initial residual = 0.135546, Final residual = 0.00987529, No Iterations 6
ExecutionTime = 0.18 s  ClockTime = 0 s

scalarTransport execute: age
smoothSolver:  Solving for age, Initial residual = 0.0771368, Final residual = 0.00590409, No Iterations 3

Time = 12

smoothSolver:  Solving for Ux, Initial residual = 0.0274869, Final residual = 0.00194214, No Iterations 6
smoothSolver:  Solving for Uy, Initial residual = 0.0146861, Final residual = 0.000969229, No Iterations 6
GAMG:  Solving for p, Initial residual = 0.0212881, Final residual = 0.00096518, No Iterations 2
time step continuity errors : sum local = 0.00272451, global = -0.000291511, cumulative = 0.00471958
smoothSolver:  Solving for omega, Initial residual = 0.0243094, Final residual = 0.00155347, No Iterations 6
smoothSolver:  Solving for k, Initial residual = 0.121585, Final residual = 0.00901244, No Iterations 6
ExecutionTime = 0.19 s  ClockTime = 0 s

scalarTransport execute: age
smoothSolver:  Solving for age, Initial residual = 0.0659961, Final residual = 0.00485942, No Iterations 3

Time = 13

smoothSolver:  Solving for Ux, Initial residual = 0.0261536, Final residual = 0.00186202, No Iterations 6
smoothSolver:  Solving for Uy, Initial residual = 0.0144667, Final residual = 0.000981378, No Iterations 6
GAMG:  Solving for p, Initial residual = 0.0197007, Final residual = 0.000902135, No Iterations 2
time step continuity errors : sum local = 0.00255566, global = -0.000155961, cumulative = 0.00456362
smoothSolver:  Solving for omega, Initial residual = 0.0208277, Final residual = 0.00135545, No Iterations 6
smoothSolver:  Solving for k, Initial residual = 0.109865, Final residual = 0.00826635, No Iterations 6
ExecutionTime = 0.2 s  ClockTime = 0 s

scalarTransport execute: age
smoothSolver:  Solving for age, Initial residual = 0.0569586, Final residual = 0.00430784, No Iterations 3

Time = 14

smoothSolver:  Solving for Ux, Initial residual = 0.0249734, Final residual = 0.00178874, No Iterations 6
smoothSolver:  Solving for Uy, Initial residual = 0.0142937, Final residual = 0.00099534, No Iterations 6
GAMG:  Solving for p, Initial residual = 0.0186558, Final residual = 0.000779591, No Iterations 2
time step continuity errors : sum local = 0.00221111, global = -3.4818e-05, cumulative = 0.0045288
smoothSolver:  Solving for omega, Initial residual = 0.0180371, Final residual = 0.00119146, No Iterations 6
smoothSolver:  Solving for k, Initial residual = 0.100094, Final residual = 0.00762479, No Iterations 6
ExecutionTime = 0.21 s  ClockTime = 0 s

scalarTransport execute: age
smoothSolver:  Solving for age, Initial residual = 0.0493449, Final residual = 0.00400019, No Iterations 3

Time = 15

smoothSolver:  Solving for Ux, Initial residual = 0.0239174, Final residual = 0.00172349, No Iterations 6
smoothSolver:  Solving for Uy, Initial residual = 0.0141721, Final residual = 0.00100051, No Iterations 6
GAMG:  Solving for p, Initial residual = 0.017759, Final residual = 0.000714357, No Iterations 2
time step continuity errors : sum local = 0.002028, global = 5.93618e-05, cumulative = 0.00458817
smoothSolver:  Solving for omega, Initial residual = 0.0157822, Final residual = 0.00105497, No Iterations 6
smoothSolver:  Solving for k, Initial residual = 0.0918143, Final residual = 0.00706659, No Iterations 6
ExecutionTime = 0.23 s  ClockTime = 0 s

scalarTransport execute: age
smoothSolver:  Solving for age, Initial residual = 0.0429064, Final residual = 0.00383077, No Iterations 3

Time = 16

smoothSolver:  Solving for Ux, Initial residual = 0.0230808, Final residual = 0.00167001, No Iterations 6
smoothSolver:  Solving for Uy, Initial residual = 0.0140508, Final residual = 0.00099984, No Iterations 6
GAMG:  Solving for p, Initial residual = 0.0170567, Final residual = 0.000667606, No Iterations 2
time step continuity errors : sum local = 0.00189377, global = 0.000130803, cumulative = 0.00471897
smoothSolver:  Solving for omega, Initial residual = 0.0139272, Final residual = 0.000940272, No Iterations 6
smoothSolver:  Solving for k, Initial residual = 0.0847089, Final residual = 0.00657735, No Iterations 6
ExecutionTime = 0.24 s  ClockTime = 1 s

scalarTransport execute: age
smoothSolver:  Solving for age, Initial residual = 0.0374714, Final residual = 0.00364013, No Iterations 3

Time = 17

smoothSolver:  Solving for Ux, Initial residual = 0.0223318, Final residual = 0.00162583, No Iterations 6
smoothSolver:  Solving for Uy, Initial residual = 0.0139746, Final residual = 0.000997323, No Iterations 6
GAMG:  Solving for p, Initial residual = 0.0164401, Final residual = 0.000642247, No Iterations 2
time step continuity errors : sum local = 0.00181874, global = 0.000179002, cumulative = 0.00489797
smoothSolver:  Solving for omega, Initial residual = 0.0123936, Final residual = 0.000843031, No Iterations 6
smoothSolver:  Solving for k, Initial residual = 0.078554, Final residual = 0.00614572, No Iterations 6
ExecutionTime = 0.25 s  ClockTime = 1 s

scalarTransport execute: age
smoothSolver:  Solving for age, Initial residual = 0.0331153, Final residual = 0.00271483, No Iterations 4

Time = 18

smoothSolver:  Solving for Ux, Initial residual = 0.0216789, Final residual = 0.00158864, No Iterations 6
smoothSolver:  Solving for Uy, Initial residual = 0.0138815, Final residual = 0.000992512, No Iterations 6
GAMG:  Solving for p, Initial residual = 0.0159548, Final residual = 0.000638333, No Iterations 2
time step continuity errors : sum local = 0.00180234, global = 0.000206015, cumulative = 0.00510399
smoothSolver:  Solving for omega, Initial residual = 0.0111069, Final residual = 0.000759913, No Iterations 6
smoothSolver:  Solving for k, Initial residual = 0.0731826, Final residual = 0.0057631, No Iterations 6
ExecutionTime = 0.26 s  ClockTime = 1 s

scalarTransport execute: age
smoothSolver:  Solving for age, Initial residual = 0.0292489, Final residual = 0.00252799, No Iterations 4

Time = 19

smoothSolver:  Solving for Ux, Initial residual = 0.0210897, Final residual = 0.00155631, No Iterations 6
smoothSolver:  Solving for Uy, Initial residual = 0.0137536, Final residual = 0.000985821, No Iterations 6
GAMG:  Solving for p, Initial residual = 0.0154732, Final residual = 0.000642859, No Iterations 2
time step continuity errors : sum local = 0.00180556, global = 0.000215948, cumulative = 0.00531993
smoothSolver:  Solving for omega, Initial residual = 0.0100124, Final residual = 0.000688317, No Iterations 6
smoothSolver:  Solving for k, Initial residual = 0.0684578, Final residual = 0.00542177, No Iterations 6
ExecutionTime = 0.28 s  ClockTime = 1 s

scalarTransport execute: age
smoothSolver:  Solving for age, Initial residual = 0.0260664, Final residual = 0.00240838, No Iterations 4

Time = 20

smoothSolver:  Solving for Ux, Initial residual = 0.0205627, Final residual = 0.00152667, No Iterations 6
smoothSolver:  Solving for Uy, Initial residual = 0.0135878, Final residual = 0.000975551, No Iterations 6
GAMG:  Solving for p, Initial residual = 0.0149928, Final residual = 0.000644414, No Iterations 2
time step continuity errors : sum local = 0.00179873, global = 0.000211424, cumulative = 0.00553136
smoothSolver:  Solving for omega, Initial residual = 0.00907878, Final residual = 0.000626156, No Iterations 6
smoothSolver:  Solving for k, Initial residual = 0.0642678, Final residual = 0.00511527, No Iterations 6
ExecutionTime = 0.29 s  ClockTime = 1 s

scalarTransport execute: age
smoothSolver:  Solving for age, Initial residual = 0.0234015, Final residual = 0.00186774, No Iterations 5

Time = 21

smoothSolver:  Solving for Ux, Initial residual = 0.020094, Final residual = 0.00149896, No Iterations 6
smoothSolver:  Solving for Uy, Initial residual = 0.0133765, Final residual = 0.000963098, No Iterations 6
GAMG:  Solving for p, Initial residual = 0.0145127, Final residual = 0.000637943, No Iterations 2
time step continuity errors : sum local = 0.0017691, global = 0.000197893, cumulative = 0.00572925
smoothSolver:  Solving for omega, Initial residual = 0.00826876, Final residual = 0.00057191, No Iterations 6
smoothSolver:  Solving for k, Initial residual = 0.0605379, Final residual = 0.00483926, No Iterations 6
ExecutionTime = 0.3 s  ClockTime = 1 s

scalarTransport execute: age
smoothSolver:  Solving for age, Initial residual = 0.0211183, Final residual = 0.00175603, No Iterations 5

Time = 22

smoothSolver:  Solving for Ux, Initial residual = 0.0196546, Final residual = 0.00147275, No Iterations 6
smoothSolver:  Solving for Uy, Initial residual = 0.013142, Final residual = 0.000950113, No Iterations 6
GAMG:  Solving for p, Initial residual = 0.0139897, Final residual = 0.000630372, No Iterations 2
time step continuity errors : sum local = 0.00173569, global = 0.000179927, cumulative = 0.00590918
smoothSolver:  Solving for omega, Initial residual = 0.00756411, Final residual = 0.000524291, No Iterations 6
smoothSolver:  Solving for k, Initial residual = 0.057198, Final residual = 0.00458936, No Iterations 6
ExecutionTime = 0.32 s  ClockTime = 1 s

scalarTransport execute: age
smoothSolver:  Solving for age, Initial residual = 0.0191822, Final residual = 0.00171677, No Iterations 5

Time = 23

smoothSolver:  Solving for Ux, Initial residual = 0.0192613, Final residual = 0.00144817, No Iterations 6
smoothSolver:  Solving for Uy, Initial residual = 0.0129156, Final residual = 0.0009375, No Iterations 6
GAMG:  Solving for p, Initial residual = 0.0133856, Final residual = 0.000622828, No Iterations 2
time step continuity errors : sum local = 0.00170232, global = 0.00016076, cumulative = 0.00606994
smoothSolver:  Solving for omega, Initial residual = 0.00694736, Final residual = 0.000482326, No Iterations 6
smoothSolver:  Solving for k, Initial residual = 0.0541857, Final residual = 0.00436184, No Iterations 6
ExecutionTime = 0.33 s  ClockTime = 1 s

scalarTransport execute: age
smoothSolver:  Solving for age, Initial residual = 0.0177226, Final residual = 0.0017113, No Iterations 5

Time = 24

smoothSolver:  Solving for Ux, Initial residual = 0.0188988, Final residual = 0.00142551, No Iterations 6
smoothSolver:  Solving for Uy, Initial residual = 0.0127168, Final residual = 0.00092564, No Iterations 6
GAMG:  Solving for p, Initial residual = 0.0127845, Final residual = 0.000620074, No Iterations 2
time step continuity errors : sum local = 0.001682, global = 0.0001456, cumulative = 0.00621554
smoothSolver:  Solving for omega, Initial residual = 0.00639943, Final residual = 0.000445086, No Iterations 6
smoothSolver:  Solving for k, Initial residual = 0.0514501, Final residual = 0.00415359, No Iterations 6
ExecutionTime = 0.34 s  ClockTime = 1 s

scalarTransport execute: age
smoothSolver:  Solving for age, Initial residual = 0.0165576, Final residual = 0.00139873, No Iterations 6

Time = 25

smoothSolver:  Solving for Ux, Initial residual = 0.0185293, Final residual = 0.00140492, No Iterations 6
smoothSolver:  Solving for Uy, Initial residual = 0.0125306, Final residual = 0.000914677, No Iterations 6
GAMG:  Solving for p, Initial residual = 0.0121823, Final residual = 0.000614757, No Iterations 2
time step continuity errors : sum local = 0.00165618, global = 0.000131644, cumulative = 0.00634718
smoothSolver:  Solving for omega, Initial residual = 0.00591473, Final residual = 0.000411912, No Iterations 6
smoothSolver:  Solving for k, Initial residual = 0.0489623, Final residual = 0.00396258, No Iterations 6
ExecutionTime = 0.35 s  ClockTime = 1 s

scalarTransport execute: age
smoothSolver:  Solving for age, Initial residual = 0.0156136, Final residual = 0.0013979, No Iterations 6

Time = 26

smoothSolver:  Solving for Ux, Initial residual = 0.0182105, Final residual = 0.00138657, No Iterations 6
smoothSolver:  Solving for Uy, Initial residual = 0.0123526, Final residual = 0.000903506, No Iterations 6
GAMG:  Solving for p, Initial residual = 0.0116294, Final residual = 0.000607723, No Iterations 2
time step continuity errors : sum local = 0.00162725, global = 0.000119399, cumulative = 0.00646658
smoothSolver:  Solving for omega, Initial residual = 0.00548378, Final residual = 0.000382335, No Iterations 6
smoothSolver:  Solving for k, Initial residual = 0.0466858, Final residual = 0.00378639, No Iterations 6
ExecutionTime = 0.37 s  ClockTime = 1 s

scalarTransport execute: age
smoothSolver:  Solving for age, Initial residual = 0.0149852, Final residual = 0.00141559, No Iterations 6

Time = 27

smoothSolver:  Solving for Ux, Initial residual = 0.0179155, Final residual = 0.00137038, No Iterations 6
smoothSolver:  Solving for Uy, Initial residual = 0.0122133, Final residual = 0.00089193, No Iterations 6
GAMG:  Solving for p, Initial residual = 0.0114167, Final residual = 0.000597951, No Iterations 2
time step continuity errors : sum local = 0.00159182, global = 0.000109238, cumulative = 0.00657582
smoothSolver:  Solving for omega, Initial residual = 0.00510206, Final residual = 0.000355976, No Iterations 6
smoothSolver:  Solving for k, Initial residual = 0.0445952, Final residual = 0.00362348, No Iterations 6
ExecutionTime = 0.38 s  ClockTime = 1 s

scalarTransport execute: age
smoothSolver:  Solving for age, Initial residual = 0.0145622, Final residual = 0.00144045, No Iterations 6

Time = 28

smoothSolver:  Solving for Ux, Initial residual = 0.0176479, Final residual = 0.00135577, No Iterations 6
smoothSolver:  Solving for Uy, Initial residual = 0.0120801, Final residual = 0.000878522, No Iterations 6
GAMG:  Solving for p, Initial residual = 0.0116033, Final residual = 0.000586701, No Iterations 2
time step continuity errors : sum local = 0.00155391, global = 0.000102544, cumulative = 0.00667836
smoothSolver:  Solving for omega, Initial residual = 0.00476283, Final residual = 0.000332366, No Iterations 6
smoothSolver:  Solving for k, Initial residual = 0.0426596, Final residual = 0.00347166, No Iterations 6
ExecutionTime = 0.39 s  ClockTime = 1 s

scalarTransport execute: age
smoothSolver:  Solving for age, Initial residual = 0.014412, Final residual = 0.00120901, No Iterations 7

Time = 29

smoothSolver:  Solving for Ux, Initial residual = 0.0174294, Final residual = 0.00134306, No Iterations 6
smoothSolver:  Solving for Uy, Initial residual = 0.0119407, Final residual = 0.000865026, No Iterations 6
GAMG:  Solving for p, Initial residual = 0.0118694, Final residual = 0.000577615, No Iterations 2
time step continuity errors : sum local = 0.00152348, global = 9.9626e-05, cumulative = 0.00677799
smoothSolver:  Solving for omega, Initial residual = 0.0044586, Final residual = 0.000310943, No Iterations 6
smoothSolver:  Solving for k, Initial residual = 0.0408635, Final residual = 0.00333, No Iterations 6
ExecutionTime = 0.4 s  ClockTime = 1 s

scalarTransport execute: age
smoothSolver:  Solving for age, Initial residual = 0.0143065, Final residual = 0.00126183, No Iterations 7

Time = 30

smoothSolver:  Solving for Ux, Initial residual = 0.0172846, Final residual = 0.00133294, No Iterations 6
smoothSolver:  Solving for Uy, Initial residual = 0.0117874, Final residual = 0.000850565, No Iterations 6
GAMG:  Solving for p, Initial residual = 0.0121543, Final residual = 0.000577998, No Iterations 2
time step continuity errors : sum local = 0.00151609, global = 9.92891e-05, cumulative = 0.00687728
smoothSolver:  Solving for omega, Initial residual = 0.00418701, Final residual = 0.000291396, No Iterations 6
smoothSolver:  Solving for k, Initial residual = 0.0391889, Final residual = 0.0031973, No Iterations 6
ExecutionTime = 0.41 s  ClockTime = 1 s

scalarTransport execute: age
smoothSolver:  Solving for age, Initial residual = 0.0143914, Final residual = 0.00134781, No Iterations 7

Time = 31

smoothSolver:  Solving for Ux, Initial residual = 0.0171914, Final residual = 0.00132351, No Iterations 6
smoothSolver:  Solving for Uy, Initial residual = 0.0115913, Final residual = 0.000833968, No Iterations 6
GAMG:  Solving for p, Initial residual = 0.0123056, Final residual = 0.00059007, No Iterations 2
time step continuity errors : sum local = 0.00153885, global = 0.0001004, cumulative = 0.00697768
smoothSolver:  Solving for omega, Initial residual = 0.00393924, Final residual = 0.000273478, No Iterations 6
smoothSolver:  Solving for k, Initial residual = 0.0376223, Final residual = 0.00307264, No Iterations 6
ExecutionTime = 0.43 s  ClockTime = 1 s

scalarTransport execute: age
smoothSolver:  Solving for age, Initial residual = 0.0144874, Final residual = 0.00139175, No Iterations 7

Time = 32

smoothSolver:  Solving for Ux, Initial residual = 0.0171273, Final residual = 0.00131563, No Iterations 6
smoothSolver:  Solving for Uy, Initial residual = 0.0113512, Final residual = 0.000815404, No Iterations 6
GAMG:  Solving for p, Initial residual = 0.0122067, Final residual = 0.000603442, No Iterations 2
time step continuity errors : sum local = 0.00156596, global = 0.000102782, cumulative = 0.00708046
smoothSolver:  Solving for omega, Initial residual = 0.00371435, Final residual = 0.000257045, No Iterations 6
smoothSolver:  Solving for k, Initial residual = 0.0361543, Final residual = 0.00295549, No Iterations 6
ExecutionTime = 0.44 s  ClockTime = 1 s

scalarTransport execute: age
smoothSolver:  Solving for age, Initial residual = 0.01472, Final residual = 0.00142825, No Iterations 7

Time = 33

smoothSolver:  Solving for Ux, Initial residual = 0.0170536, Final residual = 0.00130685, No Iterations 6
smoothSolver:  Solving for Uy, Initial residual = 0.0110588, Final residual = 0.00079441, No Iterations 6
GAMG:  Solving for p, Initial residual = 0.0118356, Final residual = 0.000597328, No Iterations 2
time step continuity errors : sum local = 0.00154341, global = 0.000105096, cumulative = 0.00718556
smoothSolver:  Solving for omega, Initial residual = 0.00350771, Final residual = 0.000241885, No Iterations 6
smoothSolver:  Solving for k, Initial residual = 0.0347782, Final residual = 0.00284541, No Iterations 6
ExecutionTime = 0.45 s  ClockTime = 1 s

scalarTransport execute: age
smoothSolver:  Solving for age, Initial residual = 0.0149527, Final residual = 0.00126577, No Iterations 8

Time = 34

smoothSolver:  Solving for Ux, Initial residual = 0.0169785, Final residual = 0.00129843, No Iterations 6
smoothSolver:  Solving for Uy, Initial residual = 0.0107272, Final residual = 0.000772018, No Iterations 6
GAMG:  Solving for p, Initial residual = 0.0112846, Final residual = 0.000575359, No Iterations 2
time step continuity errors : sum local = 0.00148091, global = 0.000104811, cumulative = 0.00729037
smoothSolver:  Solving for omega, Initial residual = 0.00331791, Final residual = 0.000227869, No Iterations 6
smoothSolver:  Solving for k, Initial residual = 0.0334819, Final residual = 0.00274171, No Iterations 6
ExecutionTime = 0.46 s  ClockTime = 1 s

scalarTransport execute: age
smoothSolver:  Solving for age, Initial residual = 0.0152211, Final residual = 0.00135184, No Iterations 8

Time = 35

smoothSolver:  Solving for Ux, Initial residual = 0.0168767, Final residual = 0.00128925, No Iterations 6
smoothSolver:  Solving for Uy, Initial residual = 0.0103769, Final residual = 0.000749429, No Iterations 6
GAMG:  Solving for p, Initial residual = 0.0107596, Final residual = 0.000555276, No Iterations 2
time step continuity errors : sum local = 0.00142519, global = 0.000101748, cumulative = 0.00739212
smoothSolver:  Solving for omega, Initial residual = 0.00314106, Final residual = 0.000214874, No Iterations 6
smoothSolver:  Solving for k, Initial residual = 0.0322634, Final residual = 0.00264444, No Iterations 6
ExecutionTime = 0.48 s  ClockTime = 1 s

scalarTransport execute: age
smoothSolver:  Solving for age, Initial residual = 0.0155351, Final residual = 0.0014377, No Iterations 8

Time = 36

smoothSolver:  Solving for Ux, Initial residual = 0.0167692, Final residual = 0.00127948, No Iterations 6
smoothSolver:  Solving for Uy, Initial residual = 0.0100301, Final residual = 0.000727977, No Iterations 6
GAMG:  Solving for p, Initial residual = 0.0103623, Final residual = 0.00054921, No Iterations 2
time step continuity errors : sum local = 0.00140839, global = 9.7355e-05, cumulative = 0.00748947
smoothSolver:  Solving for omega, Initial residual = 0.00297659, Final residual = 0.000202795, No Iterations 6
smoothSolver:  Solving for k, Initial residual = 0.0311158, Final residual = 0.00255314, No Iterations 6
ExecutionTime = 0.49 s  ClockTime = 1 s

scalarTransport execute: age
smoothSolver:  Solving for age, Initial residual = 0.0167133, Final residual = 0.00154332, No Iterations 8

Time = 37

smoothSolver:  Solving for Ux, Initial residual = 0.0166478, Final residual = 0.00127025, No Iterations 6
smoothSolver:  Solving for Uy, Initial residual = 0.00972441, Final residual = 0.000708974, No Iterations 6
GAMG:  Solving for p, Initial residual = 0.00987574, Final residual = 0.000564701, No Iterations 2
time step continuity errors : sum local = 0.00143865, global = 9.27196e-05, cumulative = 0.00758219
smoothSolver:  Solving for omega, Initial residual = 0.00282381, Final residual = 0.000191532, No Iterations 6
smoothSolver:  Solving for k, Initial residual = 0.0300389, Final residual = 0.00246764, No Iterations 6
ExecutionTime = 0.5 s  ClockTime = 1 s

scalarTransport execute: age
smoothSolver:  Solving for age, Initial residual = 0.016835, Final residual = 0.00167394, No Iterations 8

Time = 38

smoothSolver:  Solving for Ux, Initial residual = 0.0165533, Final residual = 0.00126007, No Iterations 6
smoothSolver:  Solving for Uy, Initial residual = 0.00944936, Final residual = 0.000691686, No Iterations 6
GAMG:  Solving for p, Initial residual = 0.00961068, Final residual = 0.00059887, No Iterations 2
time step continuity errors : sum local = 0.00152036, global = 8.79432e-05, cumulative = 0.00767013
smoothSolver:  Solving for omega, Initial residual = 0.00268184, Final residual = 0.000181035, No Iterations 6
smoothSolver:  Solving for k, Initial residual = 0.0290312, Final residual = 0.00238769, No Iterations 6
ExecutionTime = 0.51 s  ClockTime = 1 s

scalarTransport execute: age
smoothSolver:  Solving for age, Initial residual = 0.0170462, Final residual = 0.00154326, No Iterations 9

Time = 39

smoothSolver:  Solving for Ux, Initial residual = 0.0164708, Final residual = 0.0012495, No Iterations 6
smoothSolver:  Solving for Uy, Initial residual = 0.00919281, Final residual = 0.000675795, No Iterations 6
GAMG:  Solving for p, Initial residual = 0.00944195, Final residual = 0.000634408, No Iterations 2
time step continuity errors : sum local = 0.00160492, global = 8.29585e-05, cumulative = 0.00775309
smoothSolver:  Solving for omega, Initial residual = 0.00254908, Final residual = 0.00017127, No Iterations 6
smoothSolver:  Solving for k, Initial residual = 0.0280887, Final residual = 0.00231277, No Iterations 6
ExecutionTime = 0.53 s  ClockTime = 1 s

scalarTransport execute: age
smoothSolver:  Solving for age, Initial residual = 0.017378, Final residual = 0.00167499, No Iterations 9

Time = 40

smoothSolver:  Solving for Ux, Initial residual = 0.016386, Final residual = 0.00123823, No Iterations 6
smoothSolver:  Solving for Uy, Initial residual = 0.00895207, Final residual = 0.000661246, No Iterations 6
GAMG:  Solving for p, Initial residual = 0.00931423, Final residual = 0.000665662, No Iterations 2
time step continuity errors : sum local = 0.00167908, global = 7.80854e-05, cumulative = 0.00783118
smoothSolver:  Solving for omega, Initial residual = 0.00242534, Final residual = 0.000162168, No Iterations 6
smoothSolver:  Solving for k, Initial residual = 0.0272061, Final residual = 0.00224239, No Iterations 6
ExecutionTime = 0.54 s  ClockTime = 1 s

scalarTransport execute: age
smoothSolver:  Solving for age, Initial residual = 0.0177698, Final residual = 0.00154987, No Iterations 10

Time = 41

smoothSolver:  Solving for Ux, Initial residual = 0.0162982, Final residual = 0.00122635, No Iterations 6
smoothSolver:  Solving for Uy, Initial residual = 0.00874201, Final residual = 0.000648305, No Iterations 6
GAMG:  Solving for p, Initial residual = 0.00923222, Final residual = 0.000692047, No Iterations 2
time step continuity errors : sum local = 0.00174126, global = 7.38515e-05, cumulative = 0.00790503
smoothSolver:  Solving for omega, Initial residual = 0.00230818, Final residual = 0.000153631, No Iterations 6
smoothSolver:  Solving for k, Initial residual = 0.0263774, Final residual = 0.00217602, No Iterations 6
ExecutionTime = 0.55 s  ClockTime = 1 s

scalarTransport execute: age
smoothSolver:  Solving for age, Initial residual = 0.018302, Final residual = 0.00167363, No Iterations 10

Time = 42

smoothSolver:  Solving for Ux, Initial residual = 0.0162005, Final residual = 0.001214, No Iterations 6
smoothSolver:  Solving for Uy, Initial residual = 0.00856132, Final residual = 0.000637213, No Iterations 6
GAMG:  Solving for p, Initial residual = 0.00914958, Final residual = 0.000712928, No Iterations 2
time step continuity errors : sum local = 0.00178994, global = 7.04579e-05, cumulative = 0.00797549
smoothSolver:  Solving for omega, Initial residual = 0.00219928, Final residual = 0.000145627, No Iterations 6
smoothSolver:  Solving for k, Initial residual = 0.0256009, Final residual = 0.00211344, No Iterations 6
ExecutionTime = 0.56 s  ClockTime = 1 s

scalarTransport execute: age
smoothSolver:  Solving for age, Initial residual = 0.0188151, Final residual = 0.00181781, No Iterations 10

Time = 43

smoothSolver:  Solving for Ux, Initial residual = 0.0160935, Final residual = 0.00120123, No Iterations 6
smoothSolver:  Solving for Uy, Initial residual = 0.00841107, Final residual = 0.00062814, No Iterations 6
GAMG:  Solving for p, Initial residual = 0.00903949, Final residual = 0.000729883, No Iterations 2
time step continuity errors : sum local = 0.00182899, global = 6.79117e-05, cumulative = 0.0080434
smoothSolver:  Solving for omega, Initial residual = 0.00209663, Final residual = 0.000138134, No Iterations 6
smoothSolver:  Solving for k, Initial residual = 0.0248738, Final residual = 0.00205434, No Iterations 6
ExecutionTime = 0.58 s  ClockTime = 1 s

scalarTransport execute: age
smoothSolver:  Solving for age, Initial residual = 0.0196428, Final residual = 0.00171774, No Iterations 11

Time = 44

smoothSolver:  Solving for Ux, Initial residual = 0.0159795, Final residual = 0.00118836, No Iterations 6
smoothSolver:  Solving for Uy, Initial residual = 0.00828811, Final residual = 0.000621142, No Iterations 6
GAMG:  Solving for p, Initial residual = 0.00890092, Final residual = 0.000742241, No Iterations 2
time step continuity errors : sum local = 0.0018563, global = 6.62316e-05, cumulative = 0.00810963
smoothSolver:  Solving for omega, Initial residual = 0.00200114, Final residual = 0.00013112, No Iterations 6
smoothSolver:  Solving for k, Initial residual = 0.024191, Final residual = 0.00199849, No Iterations 6
ExecutionTime = 0.59 s  ClockTime = 1 s

scalarTransport execute: age
smoothSolver:  Solving for age, Initial residual = 0.0205035, Final residual = 0.00184949, No Iterations 11

Time = 45

smoothSolver:  Solving for Ux, Initial residual = 0.0158606, Final residual = 0.00117571, No Iterations 6
smoothSolver:  Solving for Uy, Initial residual = 0.0081891, Final residual = 0.000616184, No Iterations 6
GAMG:  Solving for p, Initial residual = 0.00870865, Final residual = 0.000744475, No Iterations 2
time step continuity errors : sum local = 0.00185765, global = 6.02694e-05, cumulative = 0.0081699
smoothSolver:  Solving for omega, Initial residual = 0.00191028, Final residual = 0.000124473, No Iterations 6
smoothSolver:  Solving for k, Initial residual = 0.0235487, Final residual = 0.00194565, No Iterations 6
ExecutionTime = 0.6 s  ClockTime = 1 s

scalarTransport execute: age
smoothSolver:  Solving for age, Initial residual = 0.0211154, Final residual = 0.00196781, No Iterations 11

Time = 46

smoothSolver:  Solving for Ux, Initial residual = 0.0157465, Final residual = 0.0011646, No Iterations 6
smoothSolver:  Solving for Uy, Initial residual = 0.00810554, Final residual = 0.0006124, No Iterations 6
GAMG:  Solving for p, Initial residual = 0.00850373, Final residual = 0.000748824, No Iterations 2
time step continuity errors : sum local = 0.00186307, global = 5.5291e-05, cumulative = 0.00822519
smoothSolver:  Solving for omega, Initial residual = 0.0018242, Final residual = 0.000181887, No Iterations 5
smoothSolver:  Solving for k, Initial residual = 0.0229567, Final residual = 0.00189667, No Iterations 6
ExecutionTime = 0.62 s  ClockTime = 1 s

scalarTransport execute: age
smoothSolver:  Solving for age, Initial residual = 0.0216734, Final residual = 0.002104, No Iterations 11

Time = 47

smoothSolver:  Solving for Ux, Initial residual = 0.0156285, Final residual = 0.00115417, No Iterations 6
smoothSolver:  Solving for Uy, Initial residual = 0.00804023, Final residual = 0.000610403, No Iterations 6
GAMG:  Solving for p, Initial residual = 0.00828247, Final residual = 0.000748296, No Iterations 2
time step continuity errors : sum local = 0.00185512, global = 5.17959e-05, cumulative = 0.00827699
smoothSolver:  Solving for omega, Initial residual = 0.00174491, Final residual = 0.000173422, No Iterations 5
smoothSolver:  Solving for k, Initial residual = 0.0224034, Final residual = 0.00185071, No Iterations 6
ExecutionTime = 0.63 s  ClockTime = 1 s

scalarTransport execute: age
smoothSolver:  Solving for age, Initial residual = 0.0218775, Final residual = 0.00212125, No Iterations 11

Time = 48

smoothSolver:  Solving for Ux, Initial residual = 0.0154968, Final residual = 0.00114373, No Iterations 6
smoothSolver:  Solving for Uy, Initial residual = 0.00798761, Final residual = 0.000609394, No Iterations 6
GAMG:  Solving for p, Initial residual = 0.00804723, Final residual = 0.000745168, No Iterations 2
time step continuity errors : sum local = 0.00184049, global = 4.92286e-05, cumulative = 0.00832621
smoothSolver:  Solving for omega, Initial residual = 0.0016755, Final residual = 0.000165666, No Iterations 5
smoothSolver:  Solving for k, Initial residual = 0.021876, Final residual = 0.00180682, No Iterations 6
ExecutionTime = 0.64 s  ClockTime = 1 s

scalarTransport execute: age
smoothSolver:  Solving for age, Initial residual = 0.0217741, Final residual = 0.00206897, No Iterations 11

Time = 49

smoothSolver:  Solving for Ux, Initial residual = 0.0153631, Final residual = 0.00113317, No Iterations 6
smoothSolver:  Solving for Uy, Initial residual = 0.00794415, Final residual = 0.000609088, No Iterations 6
GAMG:  Solving for p, Initial residual = 0.0078202, Final residual = 0.000741302, No Iterations 2
time step continuity errors : sum local = 0.00182383, global = 4.786e-05, cumulative = 0.00837407
smoothSolver:  Solving for omega, Initial residual = 0.00161091, Final residual = 0.000158466, No Iterations 5
smoothSolver:  Solving for k, Initial residual = 0.0213723, Final residual = 0.00176471, No Iterations 6
ExecutionTime = 0.65 s  ClockTime = 1 s

scalarTransport execute: age
smoothSolver:  Solving for age, Initial residual = 0.0213155, Final residual = 0.00191834, No Iterations 11

Time = 50

smoothSolver:  Solving for Ux, Initial residual = 0.0152203, Final residual = 0.00112229, No Iterations 6
smoothSolver:  Solving for Uy, Initial residual = 0.0079094, Final residual = 0.000609219, No Iterations 6
GAMG:  Solving for p, Initial residual = 0.00760867, Final residual = 0.000737726, No Iterations 2
time step continuity errors : sum local = 0.00180784, global = 4.75468e-05, cumulative = 0.00842162
smoothSolver:  Solving for omega, Initial residual = 0.00154933, Final residual = 0.000151623, No Iterations 5
smoothSolver:  Solving for k, Initial residual = 0.0208913, Final residual = 0.00172433, No Iterations 6
ExecutionTime = 0.67 s  ClockTime = 1 s

scalarTransport execute: age
smoothSolver:  Solving for age, Initial residual = 0.0207352, Final residual = 0.00198019, No Iterations 10

Time = 51

smoothSolver:  Solving for Ux, Initial residual = 0.015071, Final residual = 0.00111086, No Iterations 6
smoothSolver:  Solving for Uy, Initial residual = 0.00788099, Final residual = 0.000609652, No Iterations 6
GAMG:  Solving for p, Initial residual = 0.00741373, Final residual = 0.000736722, No Iterations 2
time step continuity errors : sum local = 0.00179828, global = 4.77717e-05, cumulative = 0.00846939
smoothSolver:  Solving for omega, Initial residual = 0.00149023, Final residual = 0.000145161, No Iterations 5
smoothSolver:  Solving for k, Initial residual = 0.020432, Final residual = 0.00168552, No Iterations 6
ExecutionTime = 0.68 s  ClockTime = 1 s

scalarTransport execute: age
smoothSolver:  Solving for age, Initial residual = 0.0201225, Final residual = 0.00180739, No Iterations 10

Time = 52

smoothSolver:  Solving for Ux, Initial residual = 0.0149051, Final residual = 0.00109863, No Iterations 6
smoothSolver:  Solving for Uy, Initial residual = 0.00785403, Final residual = 0.000610199, No Iterations 6
GAMG:  Solving for p, Initial residual = 0.00723145, Final residual = 0.000362638, No Iterations 3
time step continuity errors : sum local = 0.0008817, global = 6.42597e-05, cumulative = 0.00853365
smoothSolver:  Solving for omega, Initial residual = 0.00144043, Final residual = 0.000139005, No Iterations 5
smoothSolver:  Solving for k, Initial residual = 0.0200048, Final residual = 0.00164864, No Iterations 6
ExecutionTime = 0.69 s  ClockTime = 1 s

scalarTransport execute: age
smoothSolver:  Solving for age, Initial residual = 0.0196362, Final residual = 0.00193426, No Iterations 9

Time = 53

smoothSolver:  Solving for Ux, Initial residual = 0.0148071, Final residual = 0.00108926, No Iterations 6
smoothSolver:  Solving for Uy, Initial residual = 0.00789312, Final residual = 0.000617318, No Iterations 6
GAMG:  Solving for p, Initial residual = 0.00679633, Final residual = 0.000595371, No Iterations 2
time step continuity errors : sum local = 0.00143936, global = 5.45022e-05, cumulative = 0.00858815
smoothSolver:  Solving for omega, Initial residual = 0.0013873, Final residual = 0.000133452, No Iterations 5
smoothSolver:  Solving for k, Initial residual = 0.0195708, Final residual = 0.0016122, No Iterations 6
ExecutionTime = 0.71 s  ClockTime = 1 s

scalarTransport execute: age
smoothSolver:  Solving for age, Initial residual = 0.0191642, Final residual = 0.00184223, No Iterations 9

Time = 54

smoothSolver:  Solving for Ux, Initial residual = 0.0146015, Final residual = 0.00107832, No Iterations 6
smoothSolver:  Solving for Uy, Initial residual = 0.0078229, Final residual = 0.000611892, No Iterations 6
GAMG:  Solving for p, Initial residual = 0.00701528, Final residual = 0.000368785, No Iterations 3
time step continuity errors : sum local = 0.000889103, global = 7.1106e-05, cumulative = 0.00865926
smoothSolver:  Solving for omega, Initial residual = 0.00133354, Final residual = 0.000127905, No Iterations 5
smoothSolver:  Solving for k, Initial residual = 0.019164, Final residual = 0.00157748, No Iterations 6
ExecutionTime = 0.72 s  ClockTime = 1 s

scalarTransport execute: age
smoothSolver:  Solving for age, Initial residual = 0.0189233, Final residual = 0.0017354, No Iterations 9

Time = 55

smoothSolver:  Solving for Ux, Initial residual = 0.014413, Final residual = 0.00105936, No Iterations 6
smoothSolver:  Solving for Uy, Initial residual = 0.00783299, Final residual = 0.00061526, No Iterations 6
GAMG:  Solving for p, Initial residual = 0.00655824, Final residual = 0.000624885, No Iterations 2
time step continuity errors : sum local = 0.00149987, global = 5.92141e-05, cumulative = 0.00871848
smoothSolver:  Solving for omega, Initial residual = 0.00129428, Final residual = 0.000122752, No Iterations 5
smoothSolver:  Solving for k, Initial residual = 0.0187571, Final residual = 0.00154317, No Iterations 6
ExecutionTime = 0.73 s  ClockTime = 1 s

scalarTransport execute: age
smoothSolver:  Solving for age, Initial residual = 0.0183465, Final residual = 0.00163707, No Iterations 9

Time = 56

smoothSolver:  Solving for Ux, Initial residual = 0.014245, Final residual = 0.00104753, No Iterations 6
smoothSolver:  Solving for Uy, Initial residual = 0.00775843, Final residual = 0.000608634, No Iterations 6
GAMG:  Solving for p, Initial residual = 0.00684893, Final residual = 0.000373038, No Iterations 3
time step continuity errors : sum local = 0.000891788, global = 6.73517e-05, cumulative = 0.00878583
smoothSolver:  Solving for omega, Initial residual = 0.00126775, Final residual = 0.000117582, No Iterations 5
smoothSolver:  Solving for k, Initial residual = 0.0183782, Final residual = 0.00151046, No Iterations 6
ExecutionTime = 0.74 s  ClockTime = 1 s

scalarTransport execute: age
smoothSolver:  Solving for age, Initial residual = 0.0180621, Final residual = 0.00155555, No Iterations 9

Time = 57

smoothSolver:  Solving for Ux, Initial residual = 0.014163, Final residual = 0.00103532, No Iterations 6
smoothSolver:  Solving for Uy, Initial residual = 0.00773877, Final residual = 0.000608604, No Iterations 6
GAMG:  Solving for p, Initial residual = 0.00645172, Final residual = 0.000636494, No Iterations 2
time step continuity errors : sum local = 0.00151383, global = 5.79702e-05, cumulative = 0.0088438
smoothSolver:  Solving for omega, Initial residual = 0.00121953, Final residual = 0.000113222, No Iterations 5
smoothSolver:  Solving for k, Initial residual = 0.0179919, Final residual = 0.0014777, No Iterations 6
ExecutionTime = 0.76 s  ClockTime = 1 s

scalarTransport execute: age
smoothSolver:  Solving for age, Initial residual = 0.0175632, Final residual = 0.00153175, No Iterations 9

Time = 58

smoothSolver:  Solving for Ux, Initial residual = 0.0139852, Final residual = 0.00102312, No Iterations 6
smoothSolver:  Solving for Uy, Initial residual = 0.00767332, Final residual = 0.000601592, No Iterations 6
GAMG:  Solving for p, Initial residual = 0.00677772, Final residual = 0.000407795, No Iterations 3
time step continuity errors : sum local = 0.000965688, global = 7.49957e-05, cumulative = 0.00891879
smoothSolver:  Solving for omega, Initial residual = 0.00119428, Final residual = 0.000108878, No Iterations 5
smoothSolver:  Solving for k, Initial residual = 0.0176266, Final residual = 0.00144628, No Iterations 6
ExecutionTime = 0.77 s  ClockTime = 1 s

scalarTransport execute: age
smoothSolver:  Solving for age, Initial residual = 0.0171657, Final residual = 0.00169945, No Iterations 8

Time = 59

smoothSolver:  Solving for Ux, Initial residual = 0.013946, Final residual = 0.00101286, No Iterations 6
smoothSolver:  Solving for Uy, Initial residual = 0.00762703, Final residual = 0.000597856, No Iterations 6
GAMG:  Solving for p, Initial residual = 0.00644032, Final residual = 0.00030623, No Iterations 3
time step continuity errors : sum local = 0.000721502, global = 5.80042e-05, cumulative = 0.0089768
smoothSolver:  Solving for omega, Initial residual = 0.00116139, Final residual = 0.000104949, No Iterations 5
smoothSolver:  Solving for k, Initial residual = 0.0172668, Final residual = 0.00141519, No Iterations 6
ExecutionTime = 0.78 s  ClockTime = 1 s

scalarTransport execute: age
smoothSolver:  Solving for age, Initial residual = 0.016637, Final residual = 0.00164738, No Iterations 8

Time = 60

smoothSolver:  Solving for Ux, Initial residual = 0.0138713, Final residual = 0.00100709, No Iterations 6
smoothSolver:  Solving for Uy, Initial residual = 0.00755763, Final residual = 0.00059034, No Iterations 6
GAMG:  Solving for p, Initial residual = 0.00655423, Final residual = 0.000293198, No Iterations 3
time step continuity errors : sum local = 0.000685847, global = 6.45956e-05, cumulative = 0.00904139
smoothSolver:  Solving for omega, Initial residual = 0.00112863, Final residual = 0.000100926, No Iterations 5
smoothSolver:  Solving for k, Initial residual = 0.0169073, Final residual = 0.00138457, No Iterations 6
ExecutionTime = 0.79 s  ClockTime = 1 s

scalarTransport execute: age
smoothSolver:  Solving for age, Initial residual = 0.016156, Final residual = 0.0015873, No Iterations 8

Time = 61

smoothSolver:  Solving for Ux, Initial residual = 0.0137122, Final residual = 0.000993389, No Iterations 6
smoothSolver:  Solving for Uy, Initial residual = 0.0074563, Final residual = 0.000580351, No Iterations 6
GAMG:  Solving for p, Initial residual = 0.00666055, Final residual = 0.000307521, No Iterations 3
time step continuity errors : sum local = 0.000716387, global = 7.09506e-05, cumulative = 0.00911234
smoothSolver:  Solving for omega, Initial residual = 0.00110629, Final residual = 9.74547e-05, No Iterations 5
smoothSolver:  Solving for k, Initial residual = 0.0165514, Final residual = 0.00135434, No Iterations 6
ExecutionTime = 0.81 s  ClockTime = 1 s

scalarTransport execute: age
smoothSolver:  Solving for age, Initial residual = 0.0156769, Final residual = 0.00154947, No Iterations 8

Time = 62

smoothSolver:  Solving for Ux, Initial residual = 0.0135901, Final residual = 0.000981702, No Iterations 6
smoothSolver:  Solving for Uy, Initial residual = 0.00731393, Final residual = 0.000567262, No Iterations 6
GAMG:  Solving for p, Initial residual = 0.00672552, Final residual = 0.000327335, No Iterations 3
time step continuity errors : sum local = 0.000758981, global = 5.76632e-05, cumulative = 0.00917001
smoothSolver:  Solving for omega, Initial residual = 0.00108378, Final residual = 9.43092e-05, No Iterations 5
smoothSolver:  Solving for k, Initial residual = 0.016202, Final residual = 0.00132434, No Iterations 6
ExecutionTime = 0.82 s  ClockTime = 1 s

scalarTransport execute: age
smoothSolver:  Solving for age, Initial residual = 0.0154054, Final residual = 0.00132864, No Iterations 9

Time = 63

smoothSolver:  Solving for Ux, Initial residual = 0.0135172, Final residual = 0.000974646, No Iterations 6
smoothSolver:  Solving for Uy, Initial residual = 0.00715357, Final residual = 0.000552622, No Iterations 6
GAMG:  Solving for p, Initial residual = 0.00684224, Final residual = 0.000327575, No Iterations 3
time step continuity errors : sum local = 0.000754866, global = 5.31959e-05, cumulative = 0.0092232
smoothSolver:  Solving for omega, Initial residual = 0.0010598, Final residual = 9.14677e-05, No Iterations 5
smoothSolver:  Solving for k, Initial residual = 0.0158525, Final residual = 0.0012944, No Iterations 6
ExecutionTime = 0.83 s  ClockTime = 1 s

scalarTransport execute: age
smoothSolver:  Solving for age, Initial residual = 0.0150745, Final residual = 0.00132294, No Iterations 9

Time = 64

smoothSolver:  Solving for Ux, Initial residual = 0.0133909, Final residual = 0.000963873, No Iterations 6
smoothSolver:  Solving for Uy, Initial residual = 0.00700723, Final residual = 0.000539325, No Iterations 6
GAMG:  Solving for p, Initial residual = 0.00698587, Final residual = 0.000333502, No Iterations 3
time step continuity errors : sum local = 0.00076512, global = 5.27932e-05, cumulative = 0.009276
smoothSolver:  Solving for omega, Initial residual = 0.00104067, Final residual = 8.88739e-05, No Iterations 5
smoothSolver:  Solving for k, Initial residual = 0.015503, Final residual = 0.00126452, No Iterations 6
ExecutionTime = 0.85 s  ClockTime = 1 s

scalarTransport execute: age
smoothSolver:  Solving for age, Initial residual = 0.0147133, Final residual = 0.00133589, No Iterations 9

Time = 65

smoothSolver:  Solving for Ux, Initial residual = 0.0132551, Final residual = 0.000952448, No Iterations 6
smoothSolver:  Solving for Uy, Initial residual = 0.00684539, Final residual = 0.000524378, No Iterations 6
GAMG:  Solving for p, Initial residual = 0.00711344, Final residual = 0.000338806, No Iterations 3
time step continuity errors : sum local = 0.000774371, global = 5.41051e-05, cumulative = 0.0093301
smoothSolver:  Solving for omega, Initial residual = 0.001023, Final residual = 8.65001e-05, No Iterations 5
smoothSolver:  Solving for k, Initial residual = 0.0151533, Final residual = 0.00123462, No Iterations 6
ExecutionTime = 0.86 s  ClockTime = 1 s

scalarTransport execute: age
smoothSolver:  Solving for age, Initial residual = 0.0142821, Final residual = 0.00136372, No Iterations 9

Time = 66

smoothSolver:  Solving for Ux, Initial residual = 0.0131195, Final residual = 0.000940962, No Iterations 6
smoothSolver:  Solving for Uy, Initial residual = 0.00667101, Final residual = 0.000508317, No Iterations 6
GAMG:  Solving for p, Initial residual = 0.00720262, Final residual = 0.000347996, No Iterations 3
time step continuity errors : sum local = 0.00079233, global = 5.38438e-05, cumulative = 0.00938394
smoothSolver:  Solving for omega, Initial residual = 0.00100477, Final residual = 8.41991e-05, No Iterations 5
smoothSolver:  Solving for k, Initial residual = 0.0148004, Final residual = 0.00120464, No Iterations 6
ExecutionTime = 0.87 s  ClockTime = 1 s

scalarTransport execute: age
smoothSolver:  Solving for age, Initial residual = 0.0139785, Final residual = 0.00121775, No Iterations 10

Time = 67

smoothSolver:  Solving for Ux, Initial residual = 0.0129882, Final residual = 0.000930248, No Iterations 6
smoothSolver:  Solving for Uy, Initial residual = 0.00648577, Final residual = 0.000491292, No Iterations 6
GAMG:  Solving for p, Initial residual = 0.00729203, Final residual = 0.000367526, No Iterations 3
time step continuity errors : sum local = 0.0008338, global = 5.86309e-05, cumulative = 0.00944258
smoothSolver:  Solving for omega, Initial residual = 0.000989744, Final residual = 8.1981e-05, No Iterations 5
smoothSolver:  Solving for k, Initial residual = 0.0144469, Final residual = 0.0011745, No Iterations 6
ExecutionTime = 0.88 s  ClockTime = 1 s

scalarTransport execute: age
smoothSolver:  Solving for age, Initial residual = 0.0136531, Final residual = 0.00124897, No Iterations 10

Time = 68

smoothSolver:  Solving for Ux, Initial residual = 0.0128382, Final residual = 0.000918387, No Iterations 6
smoothSolver:  Solving for Uy, Initial residual = 0.00629498, Final residual = 0.000474204, No Iterations 6
GAMG:  Solving for p, Initial residual = 0.00737209, Final residual = 0.00036284, No Iterations 3
time step continuity errors : sum local = 0.000821333, global = 5.6883e-05, cumulative = 0.00949946
smoothSolver:  Solving for omega, Initial residual = 0.000976519, Final residual = 7.98134e-05, No Iterations 5
smoothSolver:  Solving for k, Initial residual = 0.0140912, Final residual = 0.00114421, No Iterations 6
ExecutionTime = 0.9 s  ClockTime = 1 s

scalarTransport execute: age
smoothSolver:  Solving for age, Initial residual = 0.013404, Final residual = 0.00128492, No Iterations 10

Time = 69

smoothSolver:  Solving for Ux, Initial residual = 0.0127055, Final residual = 0.000907985, No Iterations 6
smoothSolver:  Solving for Uy, Initial residual = 0.00609114, Final residual = 0.000456431, No Iterations 6
GAMG:  Solving for p, Initial residual = 0.00747631, Final residual = 0.0003799, No Iterations 3
time step continuity errors : sum local = 0.000858475, global = 5.99112e-05, cumulative = 0.00955937
smoothSolver:  Solving for omega, Initial residual = 0.000960419, Final residual = 7.75688e-05, No Iterations 5
smoothSolver:  Solving for k, Initial residual = 0.0137319, Final residual = 0.00111365, No Iterations 6
ExecutionTime = 0.91 s  ClockTime = 1 s

scalarTransport execute: age
smoothSolver:  Solving for age, Initial residual = 0.0131796, Final residual = 0.00116125, No Iterations 11

Time = 70

smoothSolver:  Solving for Ux, Initial residual = 0.0125443, Final residual = 0.000895404, No Iterations 6
smoothSolver:  Solving for Uy, Initial residual = 0.00589828, Final residual = 0.000439063, No Iterations 6
GAMG:  Solving for p, Initial residual = 0.00758535, Final residual = 0.000385463, No Iterations 3
time step continuity errors : sum local = 0.000870907, global = 6.17569e-05, cumulative = 0.00962113
smoothSolver:  Solving for omega, Initial residual = 0.000945655, Final residual = 7.53888e-05, No Iterations 5
smoothSolver:  Solving for k, Initial residual = 0.0133709, Final residual = 0.00108291, No Iterations 6
ExecutionTime = 0.92 s  ClockTime = 1 s

scalarTransport execute: age
smoothSolver:  Solving for age, Initial residual = 0.012954, Final residual = 0.0011924, No Iterations 11

Time = 71

smoothSolver:  Solving for Ux, Initial residual = 0.0123802, Final residual = 0.000882712, No Iterations 6
smoothSolver:  Solving for Uy, Initial residual = 0.00570991, Final residual = 0.000422438, No Iterations 6
GAMG:  Solving for p, Initial residual = 0.00765272, Final residual = 0.000386971, No Iterations 3
time step continuity errors : sum local = 0.000874602, global = 6.25461e-05, cumulative = 0.00968367
smoothSolver:  Solving for omega, Initial residual = 0.000929596, Final residual = 7.32421e-05, No Iterations 5
smoothSolver:  Solving for k, Initial residual = 0.0130088, Final residual = 0.00105198, No Iterations 6
ExecutionTime = 0.93 s  ClockTime = 1 s

scalarTransport execute: age
smoothSolver:  Solving for age, Initial residual = 0.0128038, Final residual = 0.0012283, No Iterations 11

Time = 72

smoothSolver:  Solving for Ux, Initial residual = 0.0122045, Final residual = 0.000869513, No Iterations 6
smoothSolver:  Solving for Uy, Initial residual = 0.00553153, Final residual = 0.00040708, No Iterations 6
GAMG:  Solving for p, Initial residual = 0.00778136, Final residual = 0.000386608, No Iterations 3
time step continuity errors : sum local = 0.000874997, global = 6.28885e-05, cumulative = 0.00974656
smoothSolver:  Solving for omega, Initial residual = 0.000914197, Final residual = 7.10683e-05, No Iterations 5
smoothSolver:  Solving for k, Initial residual = 0.0126455, Final residual = 0.00102091, No Iterations 6
ExecutionTime = 0.95 s  ClockTime = 1 s

scalarTransport execute: age
smoothSolver:  Solving for age, Initial residual = 0.0126566, Final residual = 0.00111785, No Iterations 12

Time = 73

smoothSolver:  Solving for Ux, Initial residual = 0.0120173, Final residual = 0.000855695, No Iterations 6
smoothSolver:  Solving for Uy, Initial residual = 0.00536994, Final residual = 0.000394091, No Iterations 6
GAMG:  Solving for p, Initial residual = 0.00789999, Final residual = 0.000383736, No Iterations 3
time step continuity errors : sum local = 0.0008705, global = 6.28309e-05, cumulative = 0.00980939
smoothSolver:  Solving for omega, Initial residual = 0.000899265, Final residual = 6.88248e-05, No Iterations 5
smoothSolver:  Solving for k, Initial residual = 0.0122812, Final residual = 0.000989766, No Iterations 6
ExecutionTime = 0.96 s  ClockTime = 1 s

scalarTransport execute: age
smoothSolver:  Solving for age, Initial residual = 0.0125579, Final residual = 0.00115322, No Iterations 12

Time = 74

smoothSolver:  Solving for Ux, Initial residual = 0.0118277, Final residual = 0.000841207, No Iterations 6
smoothSolver:  Solving for Uy, Initial residual = 0.00524065, Final residual = 0.000385882, No Iterations 6
GAMG:  Solving for p, Initial residual = 0.0079155, Final residual = 0.000377418, No Iterations 3
time step continuity errors : sum local = 0.000858735, global = 6.27346e-05, cumulative = 0.00987213
smoothSolver:  Solving for omega, Initial residual = 0.000882522, Final residual = 6.65244e-05, No Iterations 5
smoothSolver:  Solving for k, Initial residual = 0.0119152, Final residual = 0.000958533, No Iterations 6
ExecutionTime = 0.97 s  ClockTime = 1 s

scalarTransport execute: age
smoothSolver:  Solving for age, Initial residual = 0.0124714, Final residual = 0.00119593, No Iterations 12

Time = 75

smoothSolver:  Solving for Ux, Initial residual = 0.0116297, Final residual = 0.000826199, No Iterations 6
smoothSolver:  Solving for Uy, Initial residual = 0.00514755, Final residual = 0.000380231, No Iterations 6
GAMG:  Solving for p, Initial residual = 0.00800531, Final residual = 0.000367017, No Iterations 3
time step continuity errors : sum local = 0.000838498, global = 6.25822e-05, cumulative = 0.00993471
smoothSolver:  Solving for omega, Initial residual = 0.000867172, Final residual = 6.41791e-05, No Iterations 5
smoothSolver:  Solving for k, Initial residual = 0.0115491, Final residual = 0.000927335, No Iterations 6
ExecutionTime = 0.99 s  ClockTime = 1 s

scalarTransport execute: age
smoothSolver:  Solving for age, Initial residual = 0.0124506, Final residual = 0.00124393, No Iterations 12

Time = 76

smoothSolver:  Solving for Ux, Initial residual = 0.0114221, Final residual = 0.000810776, No Iterations 6
smoothSolver:  Solving for Uy, Initial residual = 0.00506803, Final residual = 0.000375278, No Iterations 6
GAMG:  Solving for p, Initial residual = 0.00820666, Final residual = 0.000790235, No Iterations 2
time step continuity errors : sum local = 0.0018158, global = 9.45614e-05, cumulative = 0.0100293
smoothSolver:  Solving for omega, Initial residual = 0.000848269, Final residual = 6.17257e-05, No Iterations 5
smoothSolver:  Solving for k, Initial residual = 0.0111817, Final residual = 0.000896107, No Iterations 6
ExecutionTime = 1 s  ClockTime = 1 s

scalarTransport execute: age
smoothSolver:  Solving for age, Initial residual = 0.0124613, Final residual = 0.00113605, No Iterations 13

Time = 77

smoothSolver:  Solving for Ux, Initial residual = 0.011119, Final residual = 0.000790893, No Iterations 6
smoothSolver:  Solving for Uy, Initial residual = 0.00499802, Final residual = 0.000371392, No Iterations 6
GAMG:  Solving for p, Initial residual = 0.00871571, Final residual = 0.000409471, No Iterations 3
time step continuity errors : sum local = 0.000946592, global = 7.68083e-05, cumulative = 0.0101061
smoothSolver:  Solving for omega, Initial residual = 0.000836493, Final residual = 5.93174e-05, No Iterations 5
smoothSolver:  Solving for k, Initial residual = 0.0108233, Final residual = 0.000865566, No Iterations 6
ExecutionTime = 1.01 s  ClockTime = 1 s

scalarTransport execute: age
smoothSolver:  Solving for age, Initial residual = 0.0126618, Final residual = 0.00118856, No Iterations 13

Time = 78

smoothSolver:  Solving for Ux, Initial residual = 0.0110577, Final residual = 0.00078039, No Iterations 6
smoothSolver:  Solving for Uy, Initial residual = 0.00491034, Final residual = 0.000363955, No Iterations 6
GAMG:  Solving for p, Initial residual = 0.00811958, Final residual = 0.000730506, No Iterations 2
time step continuity errors : sum local = 0.00167859, global = 0.00010044, cumulative = 0.0102065
smoothSolver:  Solving for omega, Initial residual = 0.000806683, Final residual = 5.66698e-05, No Iterations 5
smoothSolver:  Solving for k, Initial residual = 0.0104681, Final residual = 0.00083505, No Iterations 6
ExecutionTime = 1.03 s  ClockTime = 1 s

scalarTransport execute: age
smoothSolver:  Solving for age, Initial residual = 0.0128813, Final residual = 0.00123462, No Iterations 13

Time = 79

smoothSolver:  Solving for Ux, Initial residual = 0.0107259, Final residual = 0.000761559, No Iterations 6
smoothSolver:  Solving for Uy, Initial residual = 0.00487361, Final residual = 0.000361521, No Iterations 6
GAMG:  Solving for p, Initial residual = 0.00843307, Final residual = 0.000364961, No Iterations 3
time step continuity errors : sum local = 0.0008372, global = 7.3352e-05, cumulative = 0.0102799
smoothSolver:  Solving for omega, Initial residual = 0.000793206, Final residual = 5.41006e-05, No Iterations 5
smoothSolver:  Solving for k, Initial residual = 0.0101189, Final residual = 0.000805403, No Iterations 6
ExecutionTime = 1.04 s  ClockTime = 1 s

scalarTransport execute: age
smoothSolver:  Solving for age, Initial residual = 0.013189, Final residual = 0.00128883, No Iterations 13

Time = 80

smoothSolver:  Solving for Ux, Initial residual = 0.0106054, Final residual = 0.000749397, No Iterations 6
smoothSolver:  Solving for Uy, Initial residual = 0.00480208, Final residual = 0.000354427, No Iterations 6
GAMG:  Solving for p, Initial residual = 0.00810542, Final residual = 0.000724594, No Iterations 2
time step continuity errors : sum local = 0.00165005, global = 9.80933e-05, cumulative = 0.010378
smoothSolver:  Solving for omega, Initial residual = 0.000771163, Final residual = 5.11563e-05, No Iterations 5
smoothSolver:  Solving for k, Initial residual = 0.00977792, Final residual = 0.000776029, No Iterations 6
ExecutionTime = 1.05 s  ClockTime = 1 s

scalarTransport execute: age
smoothSolver:  Solving for age, Initial residual = 0.0134191, Final residual = 0.0013339, No Iterations 13

Time = 81

smoothSolver:  Solving for Ux, Initial residual = 0.0102942, Final residual = 0.000731229, No Iterations 6
smoothSolver:  Solving for Uy, Initial residual = 0.00475033, Final residual = 0.00035041, No Iterations 6
GAMG:  Solving for p, Initial residual = 0.00822642, Final residual = 0.0003826, No Iterations 3
time step continuity errors : sum local = 0.000868963, global = 8.03845e-05, cumulative = 0.0104583
smoothSolver:  Solving for omega, Initial residual = 0.000748136, Final residual = 4.85024e-05, No Iterations 5
smoothSolver:  Solving for k, Initial residual = 0.00944608, Final residual = 0.000747904, No Iterations 6
ExecutionTime = 1.07 s  ClockTime = 1 s

scalarTransport execute: age
smoothSolver:  Solving for age, Initial residual = 0.0137467, Final residual = 0.00121527, No Iterations 14

Time = 82

smoothSolver:  Solving for Ux, Initial residual = 0.0101198, Final residual = 0.000713962, No Iterations 6
smoothSolver:  Solving for Uy, Initial residual = 0.00467871, Final residual = 0.000342585, No Iterations 6
GAMG:  Solving for p, Initial residual = 0.00785833, Final residual = 0.000707321, No Iterations 2
time step continuity errors : sum local = 0.00159914, global = 0.00011836, cumulative = 0.0105767
smoothSolver:  Solving for omega, Initial residual = 0.000720347, Final residual = 4.59635e-05, No Iterations 5
smoothSolver:  Solving for k, Initial residual = 0.00913118, Final residual = 0.000720221, No Iterations 6
ExecutionTime = 1.08 s  ClockTime = 1 s

scalarTransport execute: age
smoothSolver:  Solving for age, Initial residual = 0.014252, Final residual = 0.00140739, No Iterations 13

Time = 83

smoothSolver:  Solving for Ux, Initial residual = 0.00980195, Final residual = 0.000696453, No Iterations 6
smoothSolver:  Solving for Uy, Initial residual = 0.00463, Final residual = 0.000339188, No Iterations 6
GAMG:  Solving for p, Initial residual = 0.00786346, Final residual = 0.000395472, No Iterations 3
time step continuity errors : sum local = 0.000893974, global = 8.06086e-05, cumulative = 0.0106573
smoothSolver:  Solving for omega, Initial residual = 0.000701491, Final residual = 4.37056e-05, No Iterations 5
smoothSolver:  Solving for k, Initial residual = 0.00882453, Final residual = 0.000694063, No Iterations 6
ExecutionTime = 1.09 s  ClockTime = 1 s

scalarTransport execute: age
smoothSolver:  Solving for age, Initial residual = 0.0149985, Final residual = 0.00147372, No Iterations 13

Time = 84

smoothSolver:  Solving for Ux, Initial residual = 0.00962869, Final residual = 0.000678361, No Iterations 6
smoothSolver:  Solving for Uy, Initial residual = 0.00455914, Final residual = 0.000331078, No Iterations 6
GAMG:  Solving for p, Initial residual = 0.00750815, Final residual = 0.000668025, No Iterations 2
time step continuity errors : sum local = 0.00150253, global = 0.000114375, cumulative = 0.0107717
smoothSolver:  Solving for omega, Initial residual = 0.000678576, Final residual = 6.78494e-05, No Iterations 4
smoothSolver:  Solving for k, Initial residual = 0.00853649, Final residual = 0.000668444, No Iterations 6
ExecutionTime = 1.11 s  ClockTime = 1 s

scalarTransport execute: age
smoothSolver:  Solving for age, Initial residual = 0.0151469, Final residual = 0.00146925, No Iterations 13

Time = 85

smoothSolver:  Solving for Ux, Initial residual = 0.00930616, Final residual = 0.000661745, No Iterations 6
smoothSolver:  Solving for Uy, Initial residual = 0.00450678, Final residual = 0.00032802, No Iterations 6
GAMG:  Solving for p, Initial residual = 0.00742131, Final residual = 0.000379021, No Iterations 3
time step continuity errors : sum local = 0.000852012, global = 7.80692e-05, cumulative = 0.0108498
smoothSolver:  Solving for omega, Initial residual = 0.000664936, Final residual = 6.56028e-05, No Iterations 4
smoothSolver:  Solving for k, Initial residual = 0.00825614, Final residual = 0.000644398, No Iterations 6
ExecutionTime = 1.12 s  ClockTime = 1 s

scalarTransport execute: age
smoothSolver:  Solving for age, Initial residual = 0.0151038, Final residual = 0.00146228, No Iterations 13

Time = 86

smoothSolver:  Solving for Ux, Initial residual = 0.00908027, Final residual = 0.000640383, No Iterations 6
smoothSolver:  Solving for Uy, Initial residual = 0.00445521, Final residual = 0.00032266, No Iterations 6
GAMG:  Solving for p, Initial residual = 0.00710255, Final residual = 0.000630763, No Iterations 2
time step continuity errors : sum local = 0.00141125, global = 0.000125552, cumulative = 0.0109753
smoothSolver:  Solving for omega, Initial residual = 0.000655749, Final residual = 6.33697e-05, No Iterations 4
smoothSolver:  Solving for k, Initial residual = 0.00799251, Final residual = 0.000620598, No Iterations 6
ExecutionTime = 1.13 s  ClockTime = 1 s

scalarTransport execute: age
smoothSolver:  Solving for age, Initial residual = 0.014679, Final residual = 0.00136483, No Iterations 13

Time = 87

smoothSolver:  Solving for Ux, Initial residual = 0.00877019, Final residual = 0.000622385, No Iterations 6
smoothSolver:  Solving for Uy, Initial residual = 0.00441498, Final residual = 0.000321541, No Iterations 6
GAMG:  Solving for p, Initial residual = 0.00709819, Final residual = 0.000373366, No Iterations 3
time step continuity errors : sum local = 0.00083595, global = 6.80466e-05, cumulative = 0.0110434
smoothSolver:  Solving for omega, Initial residual = 0.000639174, Final residual = 6.10105e-05, No Iterations 4
smoothSolver:  Solving for k, Initial residual = 0.00773488, Final residual = 0.000598348, No Iterations 6
ExecutionTime = 1.14 s  ClockTime = 1 s

scalarTransport execute: age
smoothSolver:  Solving for age, Initial residual = 0.0136714, Final residual = 0.0012408, No Iterations 13

Time = 88

smoothSolver:  Solving for Ux, Initial residual = 0.00853221, Final residual = 0.000598384, No Iterations 6
smoothSolver:  Solving for Uy, Initial residual = 0.00440324, Final residual = 0.000319423, No Iterations 6
GAMG:  Solving for p, Initial residual = 0.0068942, Final residual = 0.0005801, No Iterations 2
time step continuity errors : sum local = 0.00129138, global = 0.000121662, cumulative = 0.011165
smoothSolver:  Solving for omega, Initial residual = 0.00063464, Final residual = 5.8918e-05, No Iterations 4
smoothSolver:  Solving for k, Initial residual = 0.0074922, Final residual = 0.000576076, No Iterations 6
ExecutionTime = 1.16 s  ClockTime = 1 s

scalarTransport execute: age
smoothSolver:  Solving for age, Initial residual = 0.0125398, Final residual = 0.00110346, No Iterations 13

Time = 89

smoothSolver:  Solving for Ux, Initial residual = 0.00821228, Final residual = 0.000579388, No Iterations 6
smoothSolver:  Solving for Uy, Initial residual = 0.00437334, Final residual = 0.000318533, No Iterations 6
GAMG:  Solving for p, Initial residual = 0.00699019, Final residual = 0.000663917, No Iterations 2
time step continuity errors : sum local = 0.00147861, global = 0.000200293, cumulative = 0.0113653
smoothSolver:  Solving for omega, Initial residual = 0.000613658, Final residual = 5.68337e-05, No Iterations 4
smoothSolver:  Solving for k, Initial residual = 0.00724841, Final residual = 0.000554888, No Iterations 6
ExecutionTime = 1.17 s  ClockTime = 1 s

scalarTransport execute: age
smoothSolver:  Solving for age, Initial residual = 0.011436, Final residual = 0.00112431, No Iterations 12

Time = 90

smoothSolver:  Solving for Ux, Initial residual = 0.00789329, Final residual = 0.000554082, No Iterations 6
smoothSolver:  Solving for Uy, Initial residual = 0.00437376, Final residual = 0.000317933, No Iterations 6
GAMG:  Solving for p, Initial residual = 0.00692718, Final residual = 0.000646666, No Iterations 2
time step continuity errors : sum local = 0.00143784, global = 0.000205864, cumulative = 0.0115712
smoothSolver:  Solving for omega, Initial residual = 0.000602669, Final residual = 5.49466e-05, No Iterations 4
smoothSolver:  Solving for k, Initial residual = 0.00701848, Final residual = 0.000534559, No Iterations 6
ExecutionTime = 1.18 s  ClockTime = 1 s

scalarTransport execute: age
smoothSolver:  Solving for age, Initial residual = 0.0104436, Final residual = 0.0010311, No Iterations 12

Time = 91

smoothSolver:  Solving for Ux, Initial residual = 0.00764114, Final residual = 0.000533618, No Iterations 6
smoothSolver:  Solving for Uy, Initial residual = 0.00435473, Final residual = 0.000315684, No Iterations 6
GAMG:  Solving for p, Initial residual = 0.00685125, Final residual = 0.000586161, No Iterations 2
time step continuity errors : sum local = 0.00129931, global = 0.000188751, cumulative = 0.0117599
smoothSolver:  Solving for omega, Initial residual = 0.000594344, Final residual = 5.34556e-05, No Iterations 4
smoothSolver:  Solving for k, Initial residual = 0.00680198, Final residual = 0.000514707, No Iterations 6
ExecutionTime = 1.2 s  ClockTime = 1 s

scalarTransport execute: age
smoothSolver:  Solving for age, Initial residual = 0.00979968, Final residual = 0.000959515, No Iterations 12

Time = 92

smoothSolver:  Solving for Ux, Initial residual = 0.00740208, Final residual = 0.000516115, No Iterations 6
smoothSolver:  Solving for Uy, Initial residual = 0.00432577, Final residual = 0.000311764, No Iterations 6
GAMG:  Solving for p, Initial residual = 0.00666421, Final residual = 0.000550295, No Iterations 2
time step continuity errors : sum local = 0.00121138, global = 0.000188988, cumulative = 0.0119489
smoothSolver:  Solving for omega, Initial residual = 0.000589588, Final residual = 5.18641e-05, No Iterations 4
smoothSolver:  Solving for k, Initial residual = 0.0065911, Final residual = 0.000495369, No Iterations 6
ExecutionTime = 1.21 s  ClockTime = 1 s

scalarTransport execute: age
smoothSolver:  Solving for age, Initial residual = 0.00927759, Final residual = 0.000888854, No Iterations 12

Time = 93

smoothSolver:  Solving for Ux, Initial residual = 0.00713143, Final residual = 0.000496556, No Iterations 6
smoothSolver:  Solving for Uy, Initial residual = 0.00428709, Final residual = 0.000307247, No Iterations 6
GAMG:  Solving for p, Initial residual = 0.00658029, Final residual = 0.000543685, No Iterations 2
time step continuity errors : sum local = 0.00119046, global = 0.000195697, cumulative = 0.0121446
smoothSolver:  Solving for omega, Initial residual = 0.000583708, Final residual = 5.03684e-05, No Iterations 4
smoothSolver:  Solving for k, Initial residual = 0.00638554, Final residual = 0.000476623, No Iterations 6
ExecutionTime = 1.22 s  ClockTime = 1 s

scalarTransport execute: age
smoothSolver:  Solving for age, Initial residual = 0.00879375, Final residual = 0.000821776, No Iterations 12

Time = 94

smoothSolver:  Solving for Ux, Initial residual = 0.00686212, Final residual = 0.000475078, No Iterations 6
smoothSolver:  Solving for Uy, Initial residual = 0.00424649, Final residual = 0.000301766, No Iterations 6
GAMG:  Solving for p, Initial residual = 0.00647352, Final residual = 0.00053575, No Iterations 2
time step continuity errors : sum local = 0.00116708, global = 0.000198308, cumulative = 0.0123429
smoothSolver:  Solving for omega, Initial residual = 0.000581091, Final residual = 4.89974e-05, No Iterations 4
smoothSolver:  Solving for k, Initial residual = 0.00618631, Final residual = 0.000458352, No Iterations 6
ExecutionTime = 1.23 s  ClockTime = 1 s

scalarTransport execute: age
smoothSolver:  Solving for age, Initial residual = 0.00843343, Final residual = 0.000760349, No Iterations 12

Time = 95

smoothSolver:  Solving for Ux, Initial residual = 0.00658639, Final residual = 0.000452817, No Iterations 6
smoothSolver:  Solving for Uy, Initial residual = 0.00420645, Final residual = 0.00029593, No Iterations 6
GAMG:  Solving for p, Initial residual = 0.00633621, Final residual = 0.000516761, No Iterations 2
time step continuity errors : sum local = 0.00111967, global = 0.000198917, cumulative = 0.0125418
smoothSolver:  Solving for omega, Initial residual = 0.000578552, Final residual = 4.77185e-05, No Iterations 4
smoothSolver:  Solving for k, Initial residual = 0.0059935, Final residual = 0.000440522, No Iterations 6
ExecutionTime = 1.25 s  ClockTime = 2 s

scalarTransport execute: age
smoothSolver:  Solving for age, Initial residual = 0.00815647, Final residual = 0.000709844, No Iterations 12

Time = 96

smoothSolver:  Solving for Ux, Initial residual = 0.00630418, Final residual = 0.000430371, No Iterations 6
[...]

Time = 649

smoothSolver:  Solving for Ux, Initial residual = 5.00588e-07, Final residual = 3.80542e-08, No Iterations 5
smoothSolver:  Solving for Uy, Initial residual = 3.88412e-07, Final residual = 3.39028e-08, No Iterations 5
GAMG:  Solving for p, Initial residual = 1.43052e-06, Final residual = 9.43109e-08, No Iterations 2
time step continuity errors : sum local = 1.87742e-07, global = 2.64737e-08, cumulative = 0.0225854
smoothSolver:  Solving for omega, Initial residual = 4.17006e-08, Final residual = 9.98708e-09, No Iterations 2
smoothSolver:  Solving for k, Initial residual = 7.08208e-08, Final residual = 8.03937e-09, No Iterations 4
ExecutionTime = 9 s  ClockTime = 9 s

scalarTransport execute: age
smoothSolver:  Solving for age, Initial residual = 0.000314201, Final residual = 3.08876e-05, No Iterations 14

Time = 650

smoothSolver:  Solving for Ux, Initial residual = 4.92795e-07, Final residual = 3.75347e-08, No Iterations 5
smoothSolver:  Solving for Uy, Initial residual = 3.84539e-07, Final residual = 3.35741e-08, No Iterations 5
GAMG:  Solving for p, Initial residual = 1.42392e-06, Final residual = 1.05549e-07, No Iterations 2
time step continuity errors : sum local = 2.10114e-07, global = 3.00513e-08, cumulative = 0.0225855
smoothSolver:  Solving for omega, Initial residual = 4.36271e-08, Final residual = 5.78111e-09, No Iterations 3
smoothSolver:  Solving for k, Initial residual = 7.01327e-08, Final residual = 7.93941e-09, No Iterations 4
ExecutionTime = 9.01 s  ClockTime = 9 s

scalarTransport execute: age
smoothSolver:  Solving for age, Initial residual = 0.000313672, Final residual = 3.0836e-05, No Iterations 14

Time = 651

smoothSolver:  Solving for Ux, Initial residual = 4.85626e-07, Final residual = 3.70041e-08, No Iterations 5
smoothSolver:  Solving for Uy, Initial residual = 3.79094e-07, Final residual = 3.31262e-08, No Iterations 5
GAMG:  Solving for p, Initial residual = 1.43853e-06, Final residual = 1.00064e-07, No Iterations 2
time step continuity errors : sum local = 1.99195e-07, global = 2.96954e-08, cumulative = 0.0225855
smoothSolver:  Solving for omega, Initial residual = 4.19475e-08, Final residual = 5.63695e-09, No Iterations 3
smoothSolver:  Solving for k, Initial residual = 6.8452e-08, Final residual = 7.80886e-09, No Iterations 4
ExecutionTime = 9.03 s  ClockTime = 9 s

scalarTransport execute: age
smoothSolver:  Solving for age, Initial residual = 0.000313123, Final residual = 3.0782e-05, No Iterations 14

Time = 652

smoothSolver:  Solving for Ux, Initial residual = 4.77483e-07, Final residual = 3.62664e-08, No Iterations 5
smoothSolver:  Solving for Uy, Initial residual = 3.69262e-07, Final residual = 3.2069e-08, No Iterations 5
GAMG:  Solving for p, Initial residual = 1.37337e-06, Final residual = 9.06018e-08, No Iterations 2
time step continuity errors : sum local = 1.80359e-07, global = 2.63669e-08, cumulative = 0.0225855
smoothSolver:  Solving for omega, Initial residual = 4.06884e-08, Final residual = 9.75458e-09, No Iterations 2
smoothSolver:  Solving for k, Initial residual = 6.78282e-08, Final residual = 7.71031e-09, No Iterations 4
ExecutionTime = 9.04 s  ClockTime = 9 s

scalarTransport execute: age
smoothSolver:  Solving for age, Initial residual = 0.000312582, Final residual = 3.0729e-05, No Iterations 14

Time = 653

smoothSolver:  Solving for Ux, Initial residual = 4.69291e-07, Final residual = 3.56755e-08, No Iterations 5
smoothSolver:  Solving for Uy, Initial residual = 3.64179e-07, Final residual = 3.17996e-08, No Iterations 5
GAMG:  Solving for p, Initial residual = 1.34175e-06, Final residual = 8.84038e-08, No Iterations 2
time step continuity errors : sum local = 1.75984e-07, global = 2.47921e-08, cumulative = 0.0225855
smoothSolver:  Solving for omega, Initial residual = 4.11797e-08, Final residual = 9.98232e-09, No Iterations 2
smoothSolver:  Solving for k, Initial residual = 6.7108e-08, Final residual = 7.62421e-09, No Iterations 4
ExecutionTime = 9.06 s  ClockTime = 9 s

scalarTransport execute: age
smoothSolver:  Solving for age, Initial residual = 0.000312049, Final residual = 3.06768e-05, No Iterations 14

Time = 654

smoothSolver:  Solving for Ux, Initial residual = 4.62036e-07, Final residual = 3.51933e-08, No Iterations 5
smoothSolver:  Solving for Uy, Initial residual = 3.60523e-07, Final residual = 3.14893e-08, No Iterations 5
GAMG:  Solving for p, Initial residual = 1.33489e-06, Final residual = 9.89263e-08, No Iterations 2
time step continuity errors : sum local = 1.9693e-07, global = 2.81339e-08, cumulative = 0.0225856
smoothSolver:  Solving for omega, Initial residual = 4.23708e-08, Final residual = 5.69023e-09, No Iterations 3
smoothSolver:  Solving for k, Initial residual = 6.62766e-08, Final residual = 7.51404e-09, No Iterations 4
ExecutionTime = 9.07 s  ClockTime = 9 s

scalarTransport execute: age
smoothSolver:  Solving for age, Initial residual = 0.000311525, Final residual = 3.06257e-05, No Iterations 14

Time = 655

smoothSolver:  Solving for Ux, Initial residual = 4.55363e-07, Final residual = 3.46987e-08, No Iterations 5
smoothSolver:  Solving for Uy, Initial residual = 3.55445e-07, Final residual = 3.10717e-08, No Iterations 5
GAMG:  Solving for p, Initial residual = 1.34805e-06, Final residual = 9.37845e-08, No Iterations 2
time step continuity errors : sum local = 1.86695e-07, global = 2.78087e-08, cumulative = 0.0225856
smoothSolver:  Solving for omega, Initial residual = 4.03466e-08, Final residual = 9.71957e-09, No Iterations 2
smoothSolver:  Solving for k, Initial residual = 6.47983e-08, Final residual = 7.39099e-09, No Iterations 4
ExecutionTime = 9.08 s  ClockTime = 9 s

scalarTransport execute: age
smoothSolver:  Solving for age, Initial residual = 0.000310983, Final residual = 3.05725e-05, No Iterations 14

Time = 656

smoothSolver:  Solving for Ux, Initial residual = 4.47519e-07, Final residual = 3.39837e-08, No Iterations 5
smoothSolver:  Solving for Uy, Initial residual = 3.46261e-07, Final residual = 3.00817e-08, No Iterations 5
GAMG:  Solving for p, Initial residual = 1.28804e-06, Final residual = 8.4944e-08, No Iterations 2
time step continuity errors : sum local = 1.69096e-07, global = 2.46975e-08, cumulative = 0.0225856
smoothSolver:  Solving for omega, Initial residual = 4.04386e-08, Final residual = 9.83756e-09, No Iterations 2
smoothSolver:  Solving for k, Initial residual = 6.41417e-08, Final residual = 7.29643e-09, No Iterations 4
ExecutionTime = 9.1 s  ClockTime = 9 s

scalarTransport execute: age
smoothSolver:  Solving for age, Initial residual = 0.000310449, Final residual = 3.05201e-05, No Iterations 14

Time = 657

smoothSolver:  Solving for Ux, Initial residual = 4.39939e-07, Final residual = 3.34378e-08, No Iterations 5
smoothSolver:  Solving for Uy, Initial residual = 3.41509e-07, Final residual = 2.98295e-08, No Iterations 5
GAMG:  Solving for p, Initial residual = 1.25788e-06, Final residual = 8.29017e-08, No Iterations 2
time step continuity errors : sum local = 1.65031e-07, global = 2.32234e-08, cumulative = 0.0225856
smoothSolver:  Solving for omega, Initial residual = 4.0229e-08, Final residual = 9.87934e-09, No Iterations 2
smoothSolver:  Solving for k, Initial residual = 6.32875e-08, Final residual = 7.1989e-09, No Iterations 4
ExecutionTime = 9.11 s  ClockTime = 9 s

scalarTransport execute: age
smoothSolver:  Solving for age, Initial residual = 0.000309923, Final residual = 3.04685e-05, No Iterations 14

Time = 658

smoothSolver:  Solving for Ux, Initial residual = 4.33208e-07, Final residual = 3.29899e-08, No Iterations 5
smoothSolver:  Solving for Uy, Initial residual = 3.38119e-07, Final residual = 2.95408e-08, No Iterations 5
GAMG:  Solving for p, Initial residual = 1.25113e-06, Final residual = 9.27532e-08, No Iterations 2
time step continuity errors : sum local = 1.84642e-07, global = 2.63616e-08, cumulative = 0.0225857
smoothSolver:  Solving for omega, Initial residual = 4.09222e-08, Final residual = 9.87699e-09, No Iterations 2
smoothSolver:  Solving for k, Initial residual = 6.26076e-08, Final residual = 7.09468e-09, No Iterations 4
ExecutionTime = 9.13 s  ClockTime = 9 s

scalarTransport execute: age
smoothSolver:  Solving for age, Initial residual = 0.000309407, Final residual = 3.0418e-05, No Iterations 14

Time = 659

smoothSolver:  Solving for Ux, Initial residual = 4.26766e-07, Final residual = 3.25042e-08, No Iterations 5
smoothSolver:  Solving for Uy, Initial residual = 3.3341e-07, Final residual = 2.91494e-08, No Iterations 5
GAMG:  Solving for p, Initial residual = 1.26432e-06, Final residual = 8.78939e-08, No Iterations 2
time step continuity errors : sum local = 1.74969e-07, global = 2.60553e-08, cumulative = 0.0225857
smoothSolver:  Solving for omega, Initial residual = 4.028e-08, Final residual = 9.86174e-09, No Iterations 2
smoothSolver:  Solving for k, Initial residual = 6.11514e-08, Final residual = 6.9774e-09, No Iterations 4
ExecutionTime = 9.14 s  ClockTime = 9 s

scalarTransport execute: age
smoothSolver:  Solving for age, Initial residual = 0.000308873, Final residual = 3.03655e-05, No Iterations 14

Time = 660

smoothSolver:  Solving for Ux, Initial residual = 4.19532e-07, Final residual = 3.18432e-08, No Iterations 5
smoothSolver:  Solving for Uy, Initial residual = 3.24795e-07, Final residual = 2.82189e-08, No Iterations 5
GAMG:  Solving for p, Initial residual = 1.20759e-06, Final residual = 7.96411e-08, No Iterations 2
time step continuity errors : sum local = 1.5854e-07, global = 2.31467e-08, cumulative = 0.0225857
smoothSolver:  Solving for omega, Initial residual = 3.96702e-08, Final residual = 9.78894e-09, No Iterations 2
smoothSolver:  Solving for k, Initial residual = 6.03595e-08, Final residual = 6.87213e-09, No Iterations 4
ExecutionTime = 9.16 s  ClockTime = 9 s

scalarTransport execute: age
smoothSolver:  Solving for age, Initial residual = 0.000308348, Final residual = 3.03139e-05, No Iterations 14

Time = 661

smoothSolver:  Solving for Ux, Initial residual = 4.12503e-07, Final residual = 3.13372e-08, No Iterations 5
smoothSolver:  Solving for Uy, Initial residual = 3.20348e-07, Final residual = 2.79818e-08, No Iterations 5
GAMG:  Solving for p, Initial residual = 1.17903e-06, Final residual = 7.7756e-08, No Iterations 2
time step continuity errors : sum local = 1.54787e-07, global = 2.17823e-08, cumulative = 0.0225857
smoothSolver:  Solving for omega, Initial residual = 3.90296e-08, Final residual = 9.70155e-09, No Iterations 2
smoothSolver:  Solving for k, Initial residual = 5.94369e-08, Final residual = 6.76653e-09, No Iterations 4
ExecutionTime = 9.17 s  ClockTime = 9 s

scalarTransport execute: age
smoothSolver:  Solving for age, Initial residual = 0.000307829, Final residual = 3.02629e-05, No Iterations 14

Time = 662

smoothSolver:  Solving for Ux, Initial residual = 4.0625e-07, Final residual = 3.09218e-08, No Iterations 5
smoothSolver:  Solving for Uy, Initial residual = 3.17174e-07, Final residual = 2.771e-08, No Iterations 5
GAMG:  Solving for p, Initial residual = 1.17281e-06, Final residual = 8.69715e-08, No Iterations 2
time step continuity errors : sum local = 1.73133e-07, global = 2.47457e-08, cumulative = 0.0225858
smoothSolver:  Solving for omega, Initial residual = 3.93695e-08, Final residual = 9.60584e-09, No Iterations 2
smoothSolver:  Solving for k, Initial residual = 5.87071e-08, Final residual = 6.65666e-09, No Iterations 4
ExecutionTime = 9.19 s  ClockTime = 9 s

scalarTransport execute: age
smoothSolver:  Solving for age, Initial residual = 0.000307319, Final residual = 3.02131e-05, No Iterations 14

Time = 663

smoothSolver:  Solving for Ux, Initial residual = 4.00252e-07, Final residual = 3.04697e-08, No Iterations 5
smoothSolver:  Solving for Uy, Initial residual = 3.12765e-07, Final residual = 2.73413e-08, No Iterations 5
GAMG:  Solving for p, Initial residual = 1.18501e-06, Final residual = 8.23896e-08, No Iterations 2
time step continuity errors : sum local = 1.64012e-07, global = 2.44452e-08, cumulative = 0.0225858
smoothSolver:  Solving for omega, Initial residual = 3.85605e-08, Final residual = 9.51981e-09, No Iterations 2
smoothSolver:  Solving for k, Initial residual = 5.72749e-08, Final residual = 6.53693e-09, No Iterations 4
ExecutionTime = 9.21 s  ClockTime = 9 s

scalarTransport execute: age
smoothSolver:  Solving for age, Initial residual = 0.000306793, Final residual = 3.01614e-05, No Iterations 14

Time = 664

smoothSolver:  Solving for Ux, Initial residual = 3.93525e-07, Final residual = 2.98567e-08, No Iterations 5
smoothSolver:  Solving for Uy, Initial residual = 3.04676e-07, Final residual = 2.64654e-08, No Iterations 5
GAMG:  Solving for p, Initial residual = 1.13184e-06, Final residual = 7.46415e-08, No Iterations 2
time step continuity errors : sum local = 1.48588e-07, global = 2.17145e-08, cumulative = 0.0225858
smoothSolver:  Solving for omega, Initial residual = 3.78107e-08, Final residual = 9.39541e-09, No Iterations 2
smoothSolver:  Solving for k, Initial residual = 5.64838e-08, Final residual = 6.43002e-09, No Iterations 4
ExecutionTime = 9.22 s  ClockTime = 9 s

scalarTransport execute: age
smoothSolver:  Solving for age, Initial residual = 0.000306274, Final residual = 3.01105e-05, No Iterations 14

Time = 665

smoothSolver:  Solving for Ux, Initial residual = 3.86988e-07, Final residual = 2.93879e-08, No Iterations 5
smoothSolver:  Solving for Uy, Initial residual = 3.00512e-07, Final residual = 2.62417e-08, No Iterations 5
GAMG:  Solving for p, Initial residual = 1.10511e-06, Final residual = 7.28787e-08, No Iterations 2
time step continuity errors : sum local = 1.45079e-07, global = 2.04521e-08, cumulative = 0.0225858
smoothSolver:  Solving for omega, Initial residual = 3.70849e-08, Final residual = 9.26948e-09, No Iterations 2
smoothSolver:  Solving for k, Initial residual = 5.55812e-08, Final residual = 6.32429e-09, No Iterations 4
ExecutionTime = 9.23 s  ClockTime = 10 s

scalarTransport execute: age
smoothSolver:  Solving for age, Initial residual = 0.000305761, Final residual = 3.00603e-05, No Iterations 14

Time = 666

smoothSolver:  Solving for Ux, Initial residual = 3.8116e-07, Final residual = 2.90026e-08, No Iterations 5
smoothSolver:  Solving for Uy, Initial residual = 2.97522e-07, Final residual = 2.59838e-08, No Iterations 5
GAMG:  Solving for p, Initial residual = 1.09933e-06, Final residual = 8.15109e-08, No Iterations 2
time step continuity errors : sum local = 1.62263e-07, global = 2.32539e-08, cumulative = 0.0225859
smoothSolver:  Solving for omega, Initial residual = 3.7293e-08, Final residual = 9.14504e-09, No Iterations 2
smoothSolver:  Solving for k, Initial residual = 5.48664e-08, Final residual = 6.21579e-09, No Iterations 4
ExecutionTime = 9.24 s  ClockTime = 10 s

scalarTransport execute: age
smoothSolver:  Solving for age, Initial residual = 0.000305257, Final residual = 3.0011e-05, No Iterations 14

Time = 667

smoothSolver:  Solving for Ux, Initial residual = 3.75546e-07, Final residual = 2.85809e-08, No Iterations 5
smoothSolver:  Solving for Uy, Initial residual = 2.93353e-07, Final residual = 2.56338e-08, No Iterations 5
GAMG:  Solving for p, Initial residual = 1.11085e-06, Final residual = 7.72112e-08, No Iterations 2
time step continuity errors : sum local = 1.53703e-07, global = 2.29542e-08, cumulative = 0.0225859
smoothSolver:  Solving for omega, Initial residual = 3.64815e-08, Final residual = 9.03766e-09, No Iterations 2
smoothSolver:  Solving for k, Initial residual = 5.35005e-08, Final residual = 6.09931e-09, No Iterations 4
ExecutionTime = 9.26 s  ClockTime = 10 s

scalarTransport execute: age
smoothSolver:  Solving for age, Initial residual = 0.000304737, Final residual = 2.99599e-05, No Iterations 14

Time = 668

smoothSolver:  Solving for Ux, Initial residual = 3.69277e-07, Final residual = 2.80099e-08, No Iterations 5
smoothSolver:  Solving for Uy, Initial residual = 2.85701e-07, Final residual = 2.48078e-08, No Iterations 5
GAMG:  Solving for p, Initial residual = 1.06073e-06, Final residual = 6.99261e-08, No Iterations 2
time step continuity errors : sum local = 1.39201e-07, global = 2.03768e-08, cumulative = 0.0225859
smoothSolver:  Solving for omega, Initial residual = 3.57109e-08, Final residual = 8.89959e-09, No Iterations 2
smoothSolver:  Solving for k, Initial residual = 5.2744e-08, Final residual = 5.99596e-09, No Iterations 4
ExecutionTime = 9.27 s  ClockTime = 10 s

scalarTransport execute: age
smoothSolver:  Solving for age, Initial residual = 0.000304224, Final residual = 2.99094e-05, No Iterations 14

Time = 669

smoothSolver:  Solving for Ux, Initial residual = 3.63158e-07, Final residual = 2.75724e-08, No Iterations 5
smoothSolver:  Solving for Uy, Initial residual = 2.81789e-07, Final residual = 2.45968e-08, No Iterations 5
GAMG:  Solving for p, Initial residual = 1.03568e-06, Final residual = 6.82704e-08, No Iterations 2
time step continuity errors : sum local = 1.35905e-07, global = 1.92023e-08, cumulative = 0.0225859
smoothSolver:  Solving for omega, Initial residual = 3.49839e-08, Final residual = 8.76471e-09, No Iterations 2
smoothSolver:  Solving for k, Initial residual = 5.18855e-08, Final residual = 9.90698e-09, No Iterations 3
ExecutionTime = 9.28 s  ClockTime = 10 s

scalarTransport execute: age
smoothSolver:  Solving for age, Initial residual = 0.000303718, Final residual = 2.98596e-05, No Iterations 14

Time = 670

smoothSolver:  Solving for Ux, Initial residual = 3.57771e-07, Final residual = 2.72233e-08, No Iterations 5
smoothSolver:  Solving for Uy, Initial residual = 2.7898e-07, Final residual = 2.43537e-08, No Iterations 5
GAMG:  Solving for p, Initial residual = 1.02955e-06, Final residual = 7.63672e-08, No Iterations 2
time step continuity errors : sum local = 1.52023e-07, global = 2.18507e-08, cumulative = 0.0225859
smoothSolver:  Solving for omega, Initial residual = 3.49941e-08, Final residual = 8.61574e-09, No Iterations 2
smoothSolver:  Solving for k, Initial residual = 5.15807e-08, Final residual = 9.81071e-09, No Iterations 3
ExecutionTime = 9.29 s  ClockTime = 10 s

scalarTransport execute: age
smoothSolver:  Solving for age, Initial residual = 0.00030322, Final residual = 2.98107e-05, No Iterations 14

Time = 671

smoothSolver:  Solving for Ux, Initial residual = 3.52542e-07, Final residual = 2.68365e-08, No Iterations 5
smoothSolver:  Solving for Uy, Initial residual = 2.75071e-07, Final residual = 2.40243e-08, No Iterations 5
GAMG:  Solving for p, Initial residual = 1.04018e-06, Final residual = 7.2351e-08, No Iterations 2
time step continuity errors : sum local = 1.44028e-07, global = 2.1563e-08, cumulative = 0.022586
smoothSolver:  Solving for omega, Initial residual = 3.41743e-08, Final residual = 8.50038e-09, No Iterations 2
smoothSolver:  Solving for k, Initial residual = 5.0645e-08, Final residual = 9.7012e-09, No Iterations 3
ExecutionTime = 9.31 s  ClockTime = 10 s

scalarTransport execute: age
smoothSolver:  Solving for age, Initial residual = 0.000302707, Final residual = 2.976e-05, No Iterations 14

Time = 672

smoothSolver:  Solving for Ux, Initial residual = 3.4671e-07, Final residual = 2.63086e-08, No Iterations 5
smoothSolver:  Solving for Uy, Initial residual = 2.679e-07, Final residual = 2.32504e-08, No Iterations 5
GAMG:  Solving for p, Initial residual = 9.93255e-07, Final residual = 6.55035e-08, No Iterations 2
time step continuity errors : sum local = 1.30397e-07, global = 1.91361e-08, cumulative = 0.022586
smoothSolver:  Solving for omega, Initial residual = 3.34293e-08, Final residual = 8.36361e-09, No Iterations 2
smoothSolver:  Solving for k, Initial residual = 5.0261e-08, Final residual = 9.60978e-09, No Iterations 3
ExecutionTime = 9.32 s  ClockTime = 10 s


SIMPLE solution converged in 672 iterations

scalarTransport execute: age
smoothSolver:  Solving for age, Initial residual = 0.000302202, Final residual = 2.97099e-05, No Iterations 14

End

