/*---------------------------------------------------------------------------*\
| =========                 |                                                 |
| \\      /  F ield         | OpenFOAM: The Open Source CFD Toolbox           |
|  \\    /   O peration     | Version:  v2012                                 |
|   \\  /    A nd           | Website:  www.openfoam.com                      |
|    \\/     M anipulation  |                                                 |
\*---------------------------------------------------------------------------*/
Build  : _7bdb509494-20201222 OPENFOAM=2012
Arch   : "LSB;label=32;scalar=64"
Exec   : simpleFoam
Date   : Feb 23 2023
Time   : 20:04:44
Host   : johnsDesktop
PID    : 12768
I/O    : uncollated
Case   : /home/john/of_runs/cases/dbl_0_35_8-00200_9
nProcs : 1
trapFpe: Floating point exception trapping enabled (FOAM_SIGFPE).
fileModificationChecking : Monitoring run-time modified files using timeStampMaster (fileModificationSkew 5, maxFileModificationPolls 20)
allowSystemOperations : Allowing user-supplied system call operations

// * * * * * * * * * * * * * * * * * * * * * * * * * * * * * * * * * * * * * //
Create time

Create mesh for time = 0


SIMPLE: convergence criteria
    field p	 tolerance 1e-06
    field U	 tolerance 1e-06
    field "(k|epsilon|omega|f|v2|age)"	 tolerance 1e-05

Reading field p

Reading field U

Reading/calculating face flux field phi

Selecting incompressible transport model Newtonian
Selecting turbulence model type RAS
Selecting RAS turbulence model kOmegaSST
Selecting patchDistMethod meshWave
RAS
{
    RASModel        kOmegaSST;
    turbulence      on;
    printCoeffs     on;
    alphaK1         0.85;
    alphaK2         1;
    alphaOmega1     0.5;
    alphaOmega2     0.856;
    gamma1          0.555556;
    gamma2          0.44;
    beta1           0.075;
    beta2           0.0828;
    betaStar        0.09;
    a1              0.31;
    b1              1;
    c1              10;
    F3              false;
    decayControl    false;
    kInf            0;
    omegaInf        0;
}

No MRF models present

No finite volume options present

Starting time loop

Selecting finite volume options type scalarSemiImplicitSource
    Source: unitySource
    - selecting all cells
    - selected 6556 cell(s) with volume 0.03165
Time = 1

smoothSolver:  Solving for Ux, Initial residual = 0, Final residual = 0, No Iterations 0
smoothSolver:  Solving for Uy, Initial residual = 1, Final residual = 0.0704956, No Iterations 2
GAMG:  Solving for p, Initial residual = 1, Final residual = 0.0589691, No Iterations 6
time step continuity errors : sum local = 0.00372632, global = -0.00103466, cumulative = -0.00103466
smoothSolver:  Solving for omega, Initial residual = 0.266726, Final residual = 0.0126058, No Iterations 3
smoothSolver:  Solving for k, Initial residual = 1, Final residual = 0.0803706, No Iterations 3
ExecutionTime = 0.05 s  ClockTime = 0 s

scalarTransport execute: age
smoothSolver:  Solving for age, Initial residual = 1, Final residual = 0.0837145, No Iterations 6

Time = 2

smoothSolver:  Solving for Ux, Initial residual = 0.585642, Final residual = 0.0499794, No Iterations 6
smoothSolver:  Solving for Uy, Initial residual = 0.281179, Final residual = 0.0192362, No Iterations 6
GAMG:  Solving for p, Initial residual = 0.0503563, Final residual = 0.00472807, No Iterations 3
time step continuity errors : sum local = 0.0624967, global = 0.003541, cumulative = 0.00250634
smoothSolver:  Solving for omega, Initial residual = 0.263247, Final residual = 0.0249123, No Iterations 3
smoothSolver:  Solving for k, Initial residual = 0.604687, Final residual = 0.0560019, No Iterations 4
ExecutionTime = 0.06 s  ClockTime = 0 s

scalarTransport execute: age
smoothSolver:  Solving for age, Initial residual = 0.589119, Final residual = 0.0583299, No Iterations 7

Time = 3

smoothSolver:  Solving for Ux, Initial residual = 0.224481, Final residual = 0.0151331, No Iterations 6
smoothSolver:  Solving for Uy, Initial residual = 0.106525, Final residual = 0.0095401, No Iterations 5
GAMG:  Solving for p, Initial residual = 0.0532465, Final residual = 0.00341852, No Iterations 3
time step continuity errors : sum local = 0.0196128, global = 0.00143842, cumulative = 0.00394476
smoothSolver:  Solving for omega, Initial residual = 0.264547, Final residual = 0.0252713, No Iterations 4
smoothSolver:  Solving for k, Initial residual = 0.510634, Final residual = 0.0379839, No Iterations 5
ExecutionTime = 0.07 s  ClockTime = 0 s

scalarTransport execute: age
smoothSolver:  Solving for age, Initial residual = 0.401214, Final residual = 0.0365475, No Iterations 9

Time = 4

smoothSolver:  Solving for Ux, Initial residual = 0.112712, Final residual = 0.00971262, No Iterations 4
smoothSolver:  Solving for Uy, Initial residual = 0.0526058, Final residual = 0.00470678, No Iterations 4
GAMG:  Solving for p, Initial residual = 0.0863158, Final residual = 0.00385997, No Iterations 3
time step continuity errors : sum local = 0.010777, global = 0.000501594, cumulative = 0.00444635
smoothSolver:  Solving for omega, Initial residual = 0.151264, Final residual = 0.0103326, No Iterations 5
smoothSolver:  Solving for k, Initial residual = 0.439792, Final residual = 0.0368711, No Iterations 5
ExecutionTime = 0.09 s  ClockTime = 0 s

scalarTransport execute: age
smoothSolver:  Solving for age, Initial residual = 0.29093, Final residual = 0.0250938, No Iterations 9

Time = 5

smoothSolver:  Solving for Ux, Initial residual = 0.0694628, Final residual = 0.00591309, No Iterations 5
smoothSolver:  Solving for Uy, Initial residual = 0.0311708, Final residual = 0.00209089, No Iterations 5
GAMG:  Solving for p, Initial residual = 0.0769202, Final residual = 0.0032578, No Iterations 2
time step continuity errors : sum local = 0.00810428, global = -4.58851e-05, cumulative = 0.00440047
smoothSolver:  Solving for omega, Initial residual = 0.105167, Final residual = 0.00788754, No Iterations 5
smoothSolver:  Solving for k, Initial residual = 0.34326, Final residual = 0.0311233, No Iterations 5
ExecutionTime = 0.1 s  ClockTime = 0 s

scalarTransport execute: age
smoothSolver:  Solving for age, Initial residual = 0.221798, Final residual = 0.021504, No Iterations 9

Time = 6

smoothSolver:  Solving for Ux, Initial residual = 0.0495043, Final residual = 0.00336884, No Iterations 6
smoothSolver:  Solving for Uy, Initial residual = 0.0238628, Final residual = 0.00184378, No Iterations 5
GAMG:  Solving for p, Initial residual = 0.0613464, Final residual = 0.00331483, No Iterations 2
time step continuity errors : sum local = 0.00840858, global = -0.000478656, cumulative = 0.00392181
smoothSolver:  Solving for omega, Initial residual = 0.0827636, Final residual = 0.00663928, No Iterations 5
smoothSolver:  Solving for k, Initial residual = 0.274766, Final residual = 0.0264475, No Iterations 5
ExecutionTime = 0.11 s  ClockTime = 0 s

scalarTransport execute: age
smoothSolver:  Solving for age, Initial residual = 0.177917, Final residual = 0.0164712, No Iterations 10

Time = 7

smoothSolver:  Solving for Ux, Initial residual = 0.0403014, Final residual = 0.00270452, No Iterations 6
smoothSolver:  Solving for Uy, Initial residual = 0.0203178, Final residual = 0.00168009, No Iterations 5
GAMG:  Solving for p, Initial residual = 0.0500673, Final residual = 0.00381541, No Iterations 2
time step continuity errors : sum local = 0.00992534, global = -0.000839603, cumulative = 0.00308221
smoothSolver:  Solving for omega, Initial residual = 0.0635062, Final residual = 0.00545471, No Iterations 5
smoothSolver:  Solving for k, Initial residual = 0.227612, Final residual = 0.0144613, No Iterations 6
ExecutionTime = 0.12 s  ClockTime = 0 s

scalarTransport execute: age
smoothSolver:  Solving for age, Initial residual = 0.147942, Final residual = 0.0147607, No Iterations 10

Time = 8

smoothSolver:  Solving for Ux, Initial residual = 0.0322928, Final residual = 0.00297455, No Iterations 5
smoothSolver:  Solving for Uy, Initial residual = 0.0183061, Final residual = 0.00157887, No Iterations 5
GAMG:  Solving for p, Initial residual = 0.040325, Final residual = 0.00304631, No Iterations 2
time step continuity errors : sum local = 0.00836833, global = -0.0006556, cumulative = 0.00242661
smoothSolver:  Solving for omega, Initial residual = 0.0512763, Final residual = 0.00456136, No Iterations 5
smoothSolver:  Solving for k, Initial residual = 0.193961, Final residual = 0.0127753, No Iterations 6
ExecutionTime = 0.14 s  ClockTime = 0 s

scalarTransport execute: age
smoothSolver:  Solving for age, Initial residual = 0.128843, Final residual = 0.0113131, No Iterations 11

Time = 9

smoothSolver:  Solving for Ux, Initial residual = 0.0306069, Final residual = 0.00289497, No Iterations 5
smoothSolver:  Solving for Uy, Initial residual = 0.0168828, Final residual = 0.00145377, No Iterations 5
GAMG:  Solving for p, Initial residual = 0.0324109, Final residual = 0.00109473, No Iterations 2
time step continuity errors : sum local = 0.00319416, global = -0.000643833, cumulative = 0.00178278
smoothSolver:  Solving for omega, Initial residual = 0.042697, Final residual = 0.00390991, No Iterations 5
smoothSolver:  Solving for k, Initial residual = 0.168362, Final residual = 0.0114334, No Iterations 6
ExecutionTime = 0.15 s  ClockTime = 0 s

scalarTransport execute: age
smoothSolver:  Solving for age, Initial residual = 0.112343, Final residual = 0.0101827, No Iterations 11

Time = 10

smoothSolver:  Solving for Ux, Initial residual = 0.0271533, Final residual = 0.00268514, No Iterations 5
smoothSolver:  Solving for Uy, Initial residual = 0.0158259, Final residual = 0.001413, No Iterations 5
GAMG:  Solving for p, Initial residual = 0.0272439, Final residual = 0.000781832, No Iterations 2
time step continuity errors : sum local = 0.00231344, global = -0.000472023, cumulative = 0.00131076
smoothSolver:  Solving for omega, Initial residual = 0.0357744, Final residual = 0.00337118, No Iterations 5
smoothSolver:  Solving for k, Initial residual = 0.148389, Final residual = 0.0103308, No Iterations 6
ExecutionTime = 0.16 s  ClockTime = 0 s

scalarTransport execute: age
smoothSolver:  Solving for age, Initial residual = 0.0977236, Final residual = 0.00903262, No Iterations 11

Time = 11

smoothSolver:  Solving for Ux, Initial residual = 0.025217, Final residual = 0.00167043, No Iterations 6
smoothSolver:  Solving for Uy, Initial residual = 0.0149581, Final residual = 0.00138294, No Iterations 5
GAMG:  Solving for p, Initial residual = 0.0239784, Final residual = 0.000856833, No Iterations 2
time step continuity errors : sum local = 0.00256257, global = -0.000326764, cumulative = 0.000983991
smoothSolver:  Solving for omega, Initial residual = 0.0303915, Final residual = 0.00292808, No Iterations 5
smoothSolver:  Solving for k, Initial residual = 0.132414, Final residual = 0.00940755, No Iterations 6
ExecutionTime = 0.17 s  ClockTime = 0 s

scalarTransport execute: age
smoothSolver:  Solving for age, Initial residual = 0.0852581, Final residual = 0.008128, No Iterations 11

Time = 12

smoothSolver:  Solving for Ux, Initial residual = 0.0236641, Final residual = 0.00158734, No Iterations 6
smoothSolver:  Solving for Uy, Initial residual = 0.0143757, Final residual = 0.00136098, No Iterations 5
GAMG:  Solving for p, Initial residual = 0.0218259, Final residual = 0.000832182, No Iterations 2
time step continuity errors : sum local = 0.00251009, global = -0.000166578, cumulative = 0.000817413
smoothSolver:  Solving for omega, Initial residual = 0.026136, Final residual = 0.00256504, No Iterations 5
smoothSolver:  Solving for k, Initial residual = 0.119364, Final residual = 0.0086256, No Iterations 6
ExecutionTime = 0.19 s  ClockTime = 0 s

scalarTransport execute: age
smoothSolver:  Solving for age, Initial residual = 0.0742541, Final residual = 0.00735199, No Iterations 11

Time = 13

smoothSolver:  Solving for Ux, Initial residual = 0.0223627, Final residual = 0.00151137, No Iterations 6
smoothSolver:  Solving for Uy, Initial residual = 0.0139087, Final residual = 0.00134336, No Iterations 5
GAMG:  Solving for p, Initial residual = 0.020422, Final residual = 0.000768005, No Iterations 2
time step continuity errors : sum local = 0.00232844, global = 8.49852e-06, cumulative = 0.000825911
smoothSolver:  Solving for omega, Initial residual = 0.0227112, Final residual = 0.00226268, No Iterations 5
smoothSolver:  Solving for k, Initial residual = 0.108538, Final residual = 0.00795554, No Iterations 6
ExecutionTime = 0.2 s  ClockTime = 0 s

scalarTransport execute: age
smoothSolver:  Solving for age, Initial residual = 0.0650079, Final residual = 0.0056614, No Iterations 12

Time = 14

smoothSolver:  Solving for Ux, Initial residual = 0.0211635, Final residual = 0.00143644, No Iterations 6
smoothSolver:  Solving for Uy, Initial residual = 0.0135206, Final residual = 0.00132771, No Iterations 5
GAMG:  Solving for p, Initial residual = 0.0193441, Final residual = 0.000733251, No Iterations 2
time step continuity errors : sum local = 0.00222241, global = 0.000164129, cumulative = 0.00099004
smoothSolver:  Solving for omega, Initial residual = 0.0199265, Final residual = 0.00128448, No Iterations 6
smoothSolver:  Solving for k, Initial residual = 0.0991798, Final residual = 0.00736063, No Iterations 6
ExecutionTime = 0.22 s  ClockTime = 0 s

scalarTransport execute: age
smoothSolver:  Solving for age, Initial residual = 0.0563544, Final residual = 0.00509318, No Iterations 12

Time = 15

smoothSolver:  Solving for Ux, Initial residual = 0.0199885, Final residual = 0.00135917, No Iterations 6
smoothSolver:  Solving for Uy, Initial residual = 0.0132102, Final residual = 0.00130903, No Iterations 5
GAMG:  Solving for p, Initial residual = 0.0184113, Final residual = 0.00071088, No Iterations 2
time step continuity errors : sum local = 0.00214915, global = 0.00028105, cumulative = 0.00127109
smoothSolver:  Solving for omega, Initial residual = 0.0174754, Final residual = 0.00114116, No Iterations 6
smoothSolver:  Solving for k, Initial residual = 0.0910989, Final residual = 0.00683638, No Iterations 6
ExecutionTime = 0.23 s  ClockTime = 0 s

scalarTransport execute: age
smoothSolver:  Solving for age, Initial residual = 0.0492813, Final residual = 0.00458177, No Iterations 12

Time = 16

smoothSolver:  Solving for Ux, Initial residual = 0.018922, Final residual = 0.00128364, No Iterations 6
smoothSolver:  Solving for Uy, Initial residual = 0.0129247, Final residual = 0.00128895, No Iterations 5
GAMG:  Solving for p, Initial residual = 0.0176986, Final residual = 0.000712425, No Iterations 2
time step continuity errors : sum local = 0.0021411, global = 0.000347312, cumulative = 0.0016184
smoothSolver:  Solving for omega, Initial residual = 0.0154436, Final residual = 0.00101998, No Iterations 6
smoothSolver:  Solving for k, Initial residual = 0.0842026, Final residual = 0.00637844, No Iterations 6
ExecutionTime = 0.24 s  ClockTime = 0 s

scalarTransport execute: age
smoothSolver:  Solving for age, Initial residual = 0.0432453, Final residual = 0.00410245, No Iterations 12

Time = 17

smoothSolver:  Solving for Ux, Initial residual = 0.0179314, Final residual = 0.00121565, No Iterations 6
smoothSolver:  Solving for Uy, Initial residual = 0.0126932, Final residual = 0.00126824, No Iterations 5
GAMG:  Solving for p, Initial residual = 0.0170545, Final residual = 0.000705299, No Iterations 2
time step continuity errors : sum local = 0.0021026, global = 0.000369516, cumulative = 0.00198792
smoothSolver:  Solving for omega, Initial residual = 0.013753, Final residual = 0.00091662, No Iterations 6
smoothSolver:  Solving for k, Initial residual = 0.0782501, Final residual = 0.00597516, No Iterations 6
ExecutionTime = 0.26 s  ClockTime = 0 s

scalarTransport execute: age
smoothSolver:  Solving for age, Initial residual = 0.038224, Final residual = 0.00365558, No Iterations 12

Time = 18

smoothSolver:  Solving for Ux, Initial residual = 0.0170347, Final residual = 0.00115507, No Iterations 6
smoothSolver:  Solving for Uy, Initial residual = 0.0124841, Final residual = 0.00124762, No Iterations 5
GAMG:  Solving for p, Initial residual = 0.0164721, Final residual = 0.000675182, No Iterations 2
time step continuity errors : sum local = 0.00199413, global = 0.000365648, cumulative = 0.00235357
smoothSolver:  Solving for omega, Initial residual = 0.0123259, Final residual = 0.000827628, No Iterations 6
smoothSolver:  Solving for k, Initial residual = 0.0730503, Final residual = 0.00561697, No Iterations 6
ExecutionTime = 0.27 s  ClockTime = 0 s

scalarTransport execute: age
smoothSolver:  Solving for age, Initial residual = 0.033743, Final residual = 0.00324353, No Iterations 12

Time = 19

smoothSolver:  Solving for Ux, Initial residual = 0.0162275, Final residual = 0.00110238, No Iterations 6
smoothSolver:  Solving for Uy, Initial residual = 0.0122672, Final residual = 0.000801753, No Iterations 6
GAMG:  Solving for p, Initial residual = 0.0159694, Final residual = 0.00065256, No Iterations 2
time step continuity errors : sum local = 0.00190813, global = 0.000360423, cumulative = 0.00271399
smoothSolver:  Solving for omega, Initial residual = 0.0111225, Final residual = 0.00075071, No Iterations 6
smoothSolver:  Solving for k, Initial residual = 0.0684701, Final residual = 0.00529661, No Iterations 6
ExecutionTime = 0.28 s  ClockTime = 0 s

scalarTransport execute: age
smoothSolver:  Solving for age, Initial residual = 0.0300379, Final residual = 0.00286427, No Iterations 12

Time = 20

smoothSolver:  Solving for Ux, Initial residual = 0.0155889, Final residual = 0.00106156, No Iterations 6
smoothSolver:  Solving for Uy, Initial residual = 0.0119777, Final residual = 0.00119632, No Iterations 5
GAMG:  Solving for p, Initial residual = 0.015384, Final residual = 0.000614291, No Iterations 2
time step continuity errors : sum local = 0.00177728, global = 0.000345041, cumulative = 0.00305903
smoothSolver:  Solving for omega, Initial residual = 0.0100929, Final residual = 0.00068396, No Iterations 6
smoothSolver:  Solving for k, Initial residual = 0.0644079, Final residual = 0.00500867, No Iterations 6
ExecutionTime = 0.3 s  ClockTime = 0 s

scalarTransport execute: age
smoothSolver:  Solving for age, Initial residual = 0.0267237, Final residual = 0.00250694, No Iterations 12

Time = 21

smoothSolver:  Solving for Ux, Initial residual = 0.0149409, Final residual = 0.00101998, No Iterations 6
smoothSolver:  Solving for Uy, Initial residual = 0.0117575, Final residual = 0.000768032, No Iterations 6
GAMG:  Solving for p, Initial residual = 0.014852, Final residual = 0.000585224, No Iterations 2
time step continuity errors : sum local = 0.00167624, global = 0.000328728, cumulative = 0.00338776
smoothSolver:  Solving for omega, Initial residual = 0.00920525, Final residual = 0.000625594, No Iterations 6
smoothSolver:  Solving for k, Initial residual = 0.0607708, Final residual = 0.00474782, No Iterations 6
ExecutionTime = 0.31 s  ClockTime = 0 s

scalarTransport execute: age
smoothSolver:  Solving for age, Initial residual = 0.0239316, Final residual = 0.00217748, No Iterations 12

Time = 22

smoothSolver:  Solving for Ux, Initial residual = 0.0144345, Final residual = 0.000987616, No Iterations 6
smoothSolver:  Solving for Uy, Initial residual = 0.0114385, Final residual = 0.000747975, No Iterations 6
GAMG:  Solving for p, Initial residual = 0.0142702, Final residual = 0.000557718, No Iterations 2
time step continuity errors : sum local = 0.00158084, global = 0.000313365, cumulative = 0.00370112
smoothSolver:  Solving for omega, Initial residual = 0.00842647, Final residual = 0.000574263, No Iterations 6
smoothSolver:  Solving for k, Initial residual = 0.0574997, Final residual = 0.00451066, No Iterations 6
ExecutionTime = 0.32 s  ClockTime = 0 s

scalarTransport execute: age
smoothSolver:  Solving for age, Initial residual = 0.0214618, Final residual = 0.00184892, No Iterations 12

Time = 23

smoothSolver:  Solving for Ux, Initial residual = 0.0139783, Final residual = 0.000957486, No Iterations 6
smoothSolver:  Solving for Uy, Initial residual = 0.0111116, Final residual = 0.000728263, No Iterations 6
GAMG:  Solving for p, Initial residual = 0.0136344, Final residual = 0.000533593, No Iterations 2
time step continuity errors : sum local = 0.0014982, global = 0.00029833, cumulative = 0.00399945
smoothSolver:  Solving for omega, Initial residual = 0.00774682, Final residual = 0.000528923, No Iterations 6
smoothSolver:  Solving for k, Initial residual = 0.0545447, Final residual = 0.00429435, No Iterations 6
ExecutionTime = 0.34 s  ClockTime = 0 s

scalarTransport execute: age
smoothSolver:  Solving for age, Initial residual = 0.0193598, Final residual = 0.0018655, No Iterations 11

Time = 24

smoothSolver:  Solving for Ux, Initial residual = 0.013546, Final residual = 0.000929913, No Iterations 6
smoothSolver:  Solving for Uy, Initial residual = 0.0107798, Final residual = 0.000709126, No Iterations 6
GAMG:  Solving for p, Initial residual = 0.0129573, Final residual = 0.000512256, No Iterations 2
time step continuity errors : sum local = 0.00142619, global = 0.000284747, cumulative = 0.0042842
smoothSolver:  Solving for omega, Initial residual = 0.00714453, Final residual = 0.000488649, No Iterations 6
smoothSolver:  Solving for k, Initial residual = 0.0518567, Final residual = 0.0040959, No Iterations 6
ExecutionTime = 0.35 s  ClockTime = 0 s

scalarTransport execute: age
smoothSolver:  Solving for age, Initial residual = 0.0175385, Final residual = 0.00158907, No Iterations 11

Time = 25

smoothSolver:  Solving for Ux, Initial residual = 0.0131435, Final residual = 0.000905132, No Iterations 6
smoothSolver:  Solving for Uy, Initial residual = 0.010455, Final residual = 0.000690398, No Iterations 6
GAMG:  Solving for p, Initial residual = 0.0122839, Final residual = 0.000492284, No Iterations 2
time step continuity errors : sum local = 0.00136007, global = 0.000272818, cumulative = 0.00455702
smoothSolver:  Solving for omega, Initial residual = 0.00660758, Final residual = 0.000452694, No Iterations 6
smoothSolver:  Solving for k, Initial residual = 0.0494, Final residual = 0.00391301, No Iterations 6
ExecutionTime = 0.36 s  ClockTime = 0 s

scalarTransport execute: age
smoothSolver:  Solving for age, Initial residual = 0.0159935, Final residual = 0.00134808, No Iterations 11

Time = 26

smoothSolver:  Solving for Ux, Initial residual = 0.0127922, Final residual = 0.000883514, No Iterations 6
smoothSolver:  Solving for Uy, Initial residual = 0.0101331, Final residual = 0.000671247, No Iterations 6
GAMG:  Solving for p, Initial residual = 0.0116174, Final residual = 0.000472052, No Iterations 2
time step continuity errors : sum local = 0.00129456, global = 0.000262007, cumulative = 0.00481903
smoothSolver:  Solving for omega, Initial residual = 0.00613157, Final residual = 0.000420503, No Iterations 6
smoothSolver:  Solving for k, Initial residual = 0.0471456, Final residual = 0.00374385, No Iterations 6
ExecutionTime = 0.38 s  ClockTime = 0 s

scalarTransport execute: age
smoothSolver:  Solving for age, Initial residual = 0.0146748, Final residual = 0.00137998, No Iterations 10

Time = 27

smoothSolver:  Solving for Ux, Initial residual = 0.0124836, Final residual = 0.000865317, No Iterations 6
smoothSolver:  Solving for Uy, Initial residual = 0.00983276, Final residual = 0.000651809, No Iterations 6
GAMG:  Solving for p, Initial residual = 0.0110776, Final residual = 0.000450897, No Iterations 2
time step continuity errors : sum local = 0.00122829, global = 0.000252034, cumulative = 0.00507106
smoothSolver:  Solving for omega, Initial residual = 0.00570329, Final residual = 0.000391544, No Iterations 6
smoothSolver:  Solving for k, Initial residual = 0.0450649, Final residual = 0.00358668, No Iterations 6
ExecutionTime = 0.39 s  ClockTime = 0 s

scalarTransport execute: age
smoothSolver:  Solving for age, Initial residual = 0.013655, Final residual = 0.00122649, No Iterations 10

Time = 28

smoothSolver:  Solving for Ux, Initial residual = 0.0122098, Final residual = 0.000850196, No Iterations 6
smoothSolver:  Solving for Uy, Initial residual = 0.00954683, Final residual = 0.000631979, No Iterations 6
GAMG:  Solving for p, Initial residual = 0.0109229, Final residual = 0.000430361, No Iterations 2
time step continuity errors : sum local = 0.00116582, global = 0.000243023, cumulative = 0.00531408
smoothSolver:  Solving for omega, Initial residual = 0.00533519, Final residual = 0.000365308, No Iterations 6
smoothSolver:  Solving for k, Initial residual = 0.0431396, Final residual = 0.00344008, No Iterations 6
ExecutionTime = 0.4 s  ClockTime = 0 s

scalarTransport execute: age
smoothSolver:  Solving for age, Initial residual = 0.0128826, Final residual = 0.00111332, No Iterations 10

Time = 29

smoothSolver:  Solving for Ux, Initial residual = 0.0119731, Final residual = 0.000838429, No Iterations 6
smoothSolver:  Solving for Uy, Initial residual = 0.009283, Final residual = 0.000611923, No Iterations 6
GAMG:  Solving for p, Initial residual = 0.0109492, Final residual = 0.000412354, No Iterations 2
time step continuity errors : sum local = 0.00111155, global = 0.0002356, cumulative = 0.00554969
smoothSolver:  Solving for omega, Initial residual = 0.00499525, Final residual = 0.000341777, No Iterations 6
smoothSolver:  Solving for k, Initial residual = 0.0413422, Final residual = 0.00330258, No Iterations 6
ExecutionTime = 0.42 s  ClockTime = 0 s

scalarTransport execute: age
smoothSolver:  Solving for age, Initial residual = 0.0122292, Final residual = 0.00103421, No Iterations 10

Time = 30

smoothSolver:  Solving for Ux, Initial residual = 0.0118078, Final residual = 0.000829734, No Iterations 6
smoothSolver:  Solving for Uy, Initial residual = 0.00902662, Final residual = 0.000591394, No Iterations 6
GAMG:  Solving for p, Initial residual = 0.0111583, Final residual = 0.000405241, No Iterations 2
time step continuity errors : sum local = 0.00108872, global = 0.000229783, cumulative = 0.00577947
smoothSolver:  Solving for omega, Initial residual = 0.00469233, Final residual = 0.00032043, No Iterations 6
smoothSolver:  Solving for k, Initial residual = 0.0396635, Final residual = 0.00317342, No Iterations 6
ExecutionTime = 0.43 s  ClockTime = 0 s

scalarTransport execute: age
smoothSolver:  Solving for age, Initial residual = 0.0123899, Final residual = 0.00116992, No Iterations 9

Time = 31

smoothSolver:  Solving for Ux, Initial residual = 0.0117129, Final residual = 0.000823886, No Iterations 6
smoothSolver:  Solving for Uy, Initial residual = 0.00875961, Final residual = 0.000570557, No Iterations 6
GAMG:  Solving for p, Initial residual = 0.0111264, Final residual = 0.000413714, No Iterations 2
time step continuity errors : sum local = 0.00110316, global = 0.000224838, cumulative = 0.00600431
smoothSolver:  Solving for omega, Initial residual = 0.00441713, Final residual = 0.000300921, No Iterations 6
smoothSolver:  Solving for k, Initial residual = 0.0380906, Final residual = 0.00305192, No Iterations 6
ExecutionTime = 0.44 s  ClockTime = 0 s

scalarTransport execute: age
smoothSolver:  Solving for age, Initial residual = 0.0113886, Final residual = 0.000985708, No Iterations 10

Time = 32

smoothSolver:  Solving for Ux, Initial residual = 0.0116712, Final residual = 0.000820274, No Iterations 6
smoothSolver:  Solving for Uy, Initial residual = 0.00848745, Final residual = 0.000844225, No Iterations 5
GAMG:  Solving for p, Initial residual = 0.0110868, Final residual = 0.000424137, No Iterations 2
time step continuity errors : sum local = 0.00112566, global = 0.000218866, cumulative = 0.00622317
smoothSolver:  Solving for omega, Initial residual = 0.00416677, Final residual = 0.000283098, No Iterations 6
smoothSolver:  Solving for k, Initial residual = 0.0366092, Final residual = 0.00293705, No Iterations 6
ExecutionTime = 0.45 s  ClockTime = 0 s

scalarTransport execute: age
smoothSolver:  Solving for age, Initial residual = 0.0111608, Final residual = 0.000986415, No Iterations 10

Time = 33

smoothSolver:  Solving for Ux, Initial residual = 0.0116354, Final residual = 0.000816848, No Iterations 6
smoothSolver:  Solving for Uy, Initial residual = 0.00826568, Final residual = 0.000820941, No Iterations 5
GAMG:  Solving for p, Initial residual = 0.0108819, Final residual = 0.000432978, No Iterations 2
time step continuity errors : sum local = 0.00114374, global = 0.000212943, cumulative = 0.00643611
smoothSolver:  Solving for omega, Initial residual = 0.00393664, Final residual = 0.000266771, No Iterations 6
smoothSolver:  Solving for k, Initial residual = 0.0352083, Final residual = 0.00282831, No Iterations 6
ExecutionTime = 0.47 s  ClockTime = 1 s

scalarTransport execute: age
smoothSolver:  Solving for age, Initial residual = 0.0109488, Final residual = 0.000999819, No Iterations 10

Time = 34

smoothSolver:  Solving for Ux, Initial residual = 0.0116549, Final residual = 0.000816369, No Iterations 6
smoothSolver:  Solving for Uy, Initial residual = 0.00800122, Final residual = 0.000792461, No Iterations 5
GAMG:  Solving for p, Initial residual = 0.0106291, Final residual = 0.000436966, No Iterations 2
time step continuity errors : sum local = 0.00114987, global = 0.000207176, cumulative = 0.00664329
smoothSolver:  Solving for omega, Initial residual = 0.00372468, Final residual = 0.000251708, No Iterations 6
smoothSolver:  Solving for k, Initial residual = 0.0338842, Final residual = 0.00272533, No Iterations 6
ExecutionTime = 0.48 s  ClockTime = 1 s

scalarTransport execute: age
smoothSolver:  Solving for age, Initial residual = 0.0108113, Final residual = 0.00101697, No Iterations 10

Time = 35

smoothSolver:  Solving for Ux, Initial residual = 0.0117056, Final residual = 0.000818299, No Iterations 6
smoothSolver:  Solving for Uy, Initial residual = 0.00769281, Final residual = 0.000759566, No Iterations 5
GAMG:  Solving for p, Initial residual = 0.0104178, Final residual = 0.000430538, No Iterations 2
time step continuity errors : sum local = 0.00112911, global = 0.000195808, cumulative = 0.0068391
smoothSolver:  Solving for omega, Initial residual = 0.0035313, Final residual = 0.000237811, No Iterations 6
smoothSolver:  Solving for k, Initial residual = 0.0326298, Final residual = 0.00262766, No Iterations 6
ExecutionTime = 0.49 s  ClockTime = 1 s

scalarTransport execute: age
smoothSolver:  Solving for age, Initial residual = 0.0107312, Final residual = 0.00102877, No Iterations 10

Time = 36

smoothSolver:  Solving for Ux, Initial residual = 0.0117776, Final residual = 0.000822209, No Iterations 6
smoothSolver:  Solving for Uy, Initial residual = 0.00736175, Final residual = 0.00072496, No Iterations 5
GAMG:  Solving for p, Initial residual = 0.0100866, Final residual = 0.000423135, No Iterations 2
time step continuity errors : sum local = 0.00110415, global = 0.000184794, cumulative = 0.00702389
smoothSolver:  Solving for omega, Initial residual = 0.00335303, Final residual = 0.000224837, No Iterations 6
smoothSolver:  Solving for k, Initial residual = 0.0314442, Final residual = 0.00253515, No Iterations 6
ExecutionTime = 0.51 s  ClockTime = 1 s

scalarTransport execute: age
smoothSolver:  Solving for age, Initial residual = 0.0106748, Final residual = 0.00104376, No Iterations 10

Time = 37

smoothSolver:  Solving for Ux, Initial residual = 0.0118441, Final residual = 0.000826096, No Iterations 6
smoothSolver:  Solving for Uy, Initial residual = 0.00703341, Final residual = 0.000690673, No Iterations 5
GAMG:  Solving for p, Initial residual = 0.00981797, Final residual = 0.000416059, No Iterations 2
time step continuity errors : sum local = 0.00108168, global = 0.000174683, cumulative = 0.00719858
smoothSolver:  Solving for omega, Initial residual = 0.00318761, Final residual = 0.00021285, No Iterations 6
smoothSolver:  Solving for k, Initial residual = 0.0303181, Final residual = 0.00244739, No Iterations 6
ExecutionTime = 0.52 s  ClockTime = 1 s

scalarTransport execute: age
smoothSolver:  Solving for age, Initial residual = 0.0106289, Final residual = 0.001055, No Iterations 10

Time = 38

smoothSolver:  Solving for Ux, Initial residual = 0.011897, Final residual = 0.000830088, No Iterations 6
smoothSolver:  Solving for Uy, Initial residual = 0.00672066, Final residual = 0.000658036, No Iterations 5
GAMG:  Solving for p, Initial residual = 0.00965449, Final residual = 0.000414767, No Iterations 2
time step continuity errors : sum local = 0.00107515, global = 0.000165948, cumulative = 0.00736452
smoothSolver:  Solving for omega, Initial residual = 0.0030328, Final residual = 0.00020163, No Iterations 6
smoothSolver:  Solving for k, Initial residual = 0.02925, Final residual = 0.00236413, No Iterations 6
ExecutionTime = 0.53 s  ClockTime = 1 s

scalarTransport execute: age
smoothSolver:  Solving for age, Initial residual = 0.0105385, Final residual = 0.000908511, No Iterations 11

Time = 39

smoothSolver:  Solving for Ux, Initial residual = 0.0119365, Final residual = 0.000833703, No Iterations 6
smoothSolver:  Solving for Uy, Initial residual = 0.00644203, Final residual = 0.000627628, No Iterations 5
GAMG:  Solving for p, Initial residual = 0.00958599, Final residual = 0.000426006, No Iterations 2
time step continuity errors : sum local = 0.00110203, global = 0.000159097, cumulative = 0.00752362
smoothSolver:  Solving for omega, Initial residual = 0.00288587, Final residual = 0.000190794, No Iterations 6
smoothSolver:  Solving for k, Initial residual = 0.0282417, Final residual = 0.00228538, No Iterations 6
ExecutionTime = 0.55 s  ClockTime = 1 s

scalarTransport execute: age
smoothSolver:  Solving for age, Initial residual = 0.0104919, Final residual = 0.000920395, No Iterations 11

Time = 40

smoothSolver:  Solving for Ux, Initial residual = 0.0119871, Final residual = 0.000836752, No Iterations 6
smoothSolver:  Solving for Uy, Initial residual = 0.0061828, Final residual = 0.000599969, No Iterations 5
GAMG:  Solving for p, Initial residual = 0.00951755, Final residual = 0.000447463, No Iterations 2
time step continuity errors : sum local = 0.00115617, global = 0.000154461, cumulative = 0.00767808
smoothSolver:  Solving for omega, Initial residual = 0.00275115, Final residual = 0.000180808, No Iterations 6
smoothSolver:  Solving for k, Initial residual = 0.0272875, Final residual = 0.00221058, No Iterations 6
ExecutionTime = 0.56 s  ClockTime = 1 s

scalarTransport execute: age
smoothSolver:  Solving for age, Initial residual = 0.0104369, Final residual = 0.000936518, No Iterations 11

Time = 41

smoothSolver:  Solving for Ux, Initial residual = 0.0120636, Final residual = 0.000839539, No Iterations 6
smoothSolver:  Solving for Uy, Initial residual = 0.00594551, Final residual = 0.000575296, No Iterations 5
GAMG:  Solving for p, Initial residual = 0.00944569, Final residual = 0.000475171, No Iterations 2
time step continuity errors : sum local = 0.00122692, global = 0.00015201, cumulative = 0.00783009
smoothSolver:  Solving for omega, Initial residual = 0.00262756, Final residual = 0.000171534, No Iterations 6
smoothSolver:  Solving for k, Initial residual = 0.0263846, Final residual = 0.00213935, No Iterations 6
ExecutionTime = 0.57 s  ClockTime = 1 s

scalarTransport execute: age
smoothSolver:  Solving for age, Initial residual = 0.0103663, Final residual = 0.000957749, No Iterations 11

Time = 42

smoothSolver:  Solving for Ux, Initial residual = 0.0121546, Final residual = 0.000842251, No Iterations 6
smoothSolver:  Solving for Uy, Initial residual = 0.0057337, Final residual = 0.000553802, No Iterations 5
GAMG:  Solving for p, Initial residual = 0.009412, Final residual = 0.000507399, No Iterations 2
time step continuity errors : sum local = 0.00130948, global = 0.000155893, cumulative = 0.00798599
smoothSolver:  Solving for omega, Initial residual = 0.00251058, Final residual = 0.000250922, No Iterations 5
smoothSolver:  Solving for k, Initial residual = 0.0255495, Final residual = 0.00207299, No Iterations 6
ExecutionTime = 0.58 s  ClockTime = 1 s

scalarTransport execute: age
smoothSolver:  Solving for age, Initial residual = 0.0102855, Final residual = 0.000977394, No Iterations 11

Time = 43

smoothSolver:  Solving for Ux, Initial residual = 0.0122363, Final residual = 0.00084457, No Iterations 6
smoothSolver:  Solving for Uy, Initial residual = 0.00556022, Final residual = 0.000536032, No Iterations 5
GAMG:  Solving for p, Initial residual = 0.00942471, Final residual = 0.000533453, No Iterations 2
time step continuity errors : sum local = 0.00137745, global = 0.000162122, cumulative = 0.00814811
smoothSolver:  Solving for omega, Initial residual = 0.00241425, Final residual = 0.000239492, No Iterations 5
smoothSolver:  Solving for k, Initial residual = 0.0247684, Final residual = 0.00201042, No Iterations 6
ExecutionTime = 0.6 s  ClockTime = 1 s

scalarTransport execute: age
smoothSolver:  Solving for age, Initial residual = 0.0102427, Final residual = 0.00100001, No Iterations 11

Time = 44

smoothSolver:  Solving for Ux, Initial residual = 0.0123126, Final residual = 0.000847491, No Iterations 6
smoothSolver:  Solving for Uy, Initial residual = 0.00542237, Final residual = 0.000521818, No Iterations 5
GAMG:  Solving for p, Initial residual = 0.00945948, Final residual = 0.000557393, No Iterations 2
time step continuity errors : sum local = 0.00144045, global = 0.00016977, cumulative = 0.00831788
smoothSolver:  Solving for omega, Initial residual = 0.00232357, Final residual = 0.000228702, No Iterations 5
smoothSolver:  Solving for k, Initial residual = 0.0240234, Final residual = 0.00195046, No Iterations 6
ExecutionTime = 0.61 s  ClockTime = 1 s

scalarTransport execute: age
smoothSolver:  Solving for age, Initial residual = 0.01016, Final residual = 0.00101519, No Iterations 11

Time = 45

smoothSolver:  Solving for Ux, Initial residual = 0.0123851, Final residual = 0.000850782, No Iterations 6
smoothSolver:  Solving for Uy, Initial residual = 0.00531668, Final residual = 0.000511448, No Iterations 5
GAMG:  Solving for p, Initial residual = 0.00950022, Final residual = 0.000577926, No Iterations 2
time step continuity errors : sum local = 0.00149524, global = 0.000177404, cumulative = 0.00849528
smoothSolver:  Solving for omega, Initial residual = 0.00223767, Final residual = 0.000218435, No Iterations 5
smoothSolver:  Solving for k, Initial residual = 0.0233134, Final residual = 0.00189305, No Iterations 6
ExecutionTime = 0.62 s  ClockTime = 1 s

scalarTransport execute: age
smoothSolver:  Solving for age, Initial residual = 0.0101502, Final residual = 0.000919993, No Iterations 12

Time = 46

smoothSolver:  Solving for Ux, Initial residual = 0.0124506, Final residual = 0.000854583, No Iterations 6
smoothSolver:  Solving for Uy, Initial residual = 0.00524206, Final residual = 0.000504889, No Iterations 5
GAMG:  Solving for p, Initial residual = 0.00952434, Final residual = 0.000595608, No Iterations 2
time step continuity errors : sum local = 0.00154286, global = 0.00018425, cumulative = 0.00867953
smoothSolver:  Solving for omega, Initial residual = 0.00215936, Final residual = 0.000208685, No Iterations 5
smoothSolver:  Solving for k, Initial residual = 0.0226347, Final residual = 0.00183791, No Iterations 6
ExecutionTime = 0.64 s  ClockTime = 1 s

scalarTransport execute: age
smoothSolver:  Solving for age, Initial residual = 0.0103972, Final residual = 0.000969315, No Iterations 12

Time = 47

smoothSolver:  Solving for Ux, Initial residual = 0.0125188, Final residual = 0.000858887, No Iterations 6
smoothSolver:  Solving for Uy, Initial residual = 0.00520053, Final residual = 0.000502913, No Iterations 5
GAMG:  Solving for p, Initial residual = 0.00956515, Final residual = 0.000610175, No Iterations 2
time step continuity errors : sum local = 0.00158142, global = 0.000188283, cumulative = 0.00886781
smoothSolver:  Solving for omega, Initial residual = 0.00208763, Final residual = 0.000199544, No Iterations 5
smoothSolver:  Solving for k, Initial residual = 0.0219883, Final residual = 0.00178512, No Iterations 6
ExecutionTime = 0.65 s  ClockTime = 1 s

scalarTransport execute: age
smoothSolver:  Solving for age, Initial residual = 0.0106092, Final residual = 0.000932248, No Iterations 13

Time = 48

smoothSolver:  Solving for Ux, Initial residual = 0.0125876, Final residual = 0.000863628, No Iterations 6
smoothSolver:  Solving for Uy, Initial residual = 0.00519286, Final residual = 0.000504959, No Iterations 5
GAMG:  Solving for p, Initial residual = 0.00962943, Final residual = 0.000623201, No Iterations 2
time step continuity errors : sum local = 0.00161515, global = 0.000190424, cumulative = 0.00905824
smoothSolver:  Solving for omega, Initial residual = 0.00201671, Final residual = 0.000190912, No Iterations 5
smoothSolver:  Solving for k, Initial residual = 0.0213704, Final residual = 0.0017345, No Iterations 6
ExecutionTime = 0.66 s  ClockTime = 1 s

scalarTransport execute: age
smoothSolver:  Solving for age, Initial residual = 0.011166, Final residual = 0.000984633, No Iterations 12

Time = 49

smoothSolver:  Solving for Ux, Initial residual = 0.0126663, Final residual = 0.000868817, No Iterations 6
smoothSolver:  Solving for Uy, Initial residual = 0.00521121, Final residual = 0.000510403, No Iterations 5
GAMG:  Solving for p, Initial residual = 0.00966299, Final residual = 0.00063553, No Iterations 2
time step continuity errors : sum local = 0.0016488, global = 0.000190708, cumulative = 0.00924895
smoothSolver:  Solving for omega, Initial residual = 0.00194809, Final residual = 0.000182701, No Iterations 5
smoothSolver:  Solving for k, Initial residual = 0.0207789, Final residual = 0.00168592, No Iterations 6
ExecutionTime = 0.67 s  ClockTime = 1 s

scalarTransport execute: age
smoothSolver:  Solving for age, Initial residual = 0.0112647, Final residual = 0.000979635, No Iterations 12

Time = 50

smoothSolver:  Solving for Ux, Initial residual = 0.0127446, Final residual = 0.000874266, No Iterations 6
smoothSolver:  Solving for Uy, Initial residual = 0.00526017, Final residual = 0.000518839, No Iterations 5
GAMG:  Solving for p, Initial residual = 0.00967444, Final residual = 0.000648943, No Iterations 2
time step continuity errors : sum local = 0.00168496, global = 0.000189836, cumulative = 0.00943878
smoothSolver:  Solving for omega, Initial residual = 0.0018823, Final residual = 0.00017504, No Iterations 5
smoothSolver:  Solving for k, Initial residual = 0.0202091, Final residual = 0.00163911, No Iterations 6
ExecutionTime = 0.69 s  ClockTime = 1 s

scalarTransport execute: age
smoothSolver:  Solving for age, Initial residual = 0.0110309, Final residual = 0.000970193, No Iterations 12

Time = 51

smoothSolver:  Solving for Ux, Initial residual = 0.0128172, Final residual = 0.000879743, No Iterations 6
smoothSolver:  Solving for Uy, Initial residual = 0.00531775, Final residual = 0.000529787, No Iterations 5
GAMG:  Solving for p, Initial residual = 0.00975911, Final residual = 0.000651598, No Iterations 2
time step continuity errors : sum local = 0.00169397, global = 0.000187739, cumulative = 0.00962652
smoothSolver:  Solving for omega, Initial residual = 0.00182184, Final residual = 0.000167875, No Iterations 5
smoothSolver:  Solving for k, Initial residual = 0.019662, Final residual = 0.00159402, No Iterations 6
ExecutionTime = 0.7 s  ClockTime = 1 s

scalarTransport execute: age
smoothSolver:  Solving for age, Initial residual = 0.0111805, Final residual = 0.00100522, No Iterations 12

Time = 52

smoothSolver:  Solving for Ux, Initial residual = 0.0128844, Final residual = 0.000884971, No Iterations 6
smoothSolver:  Solving for Uy, Initial residual = 0.00539247, Final residual = 0.00035347, No Iterations 6
GAMG:  Solving for p, Initial residual = 0.0100738, Final residual = 0.000656093, No Iterations 2
time step continuity errors : sum local = 0.0017111, global = 0.000186964, cumulative = 0.00981349
smoothSolver:  Solving for omega, Initial residual = 0.00176565, Final residual = 0.000161116, No Iterations 5
smoothSolver:  Solving for k, Initial residual = 0.0191355, Final residual = 0.00155055, No Iterations 6
ExecutionTime = 0.71 s  ClockTime = 1 s

scalarTransport execute: age
smoothSolver:  Solving for age, Initial residual = 0.0115381, Final residual = 0.0010478, No Iterations 12

Time = 53

smoothSolver:  Solving for Ux, Initial residual = 0.0129472, Final residual = 0.000889594, No Iterations 6
smoothSolver:  Solving for Uy, Initial residual = 0.00542883, Final residual = 0.000359272, No Iterations 6
GAMG:  Solving for p, Initial residual = 0.010488, Final residual = 0.000664417, No Iterations 2
time step continuity errors : sum local = 0.00174865, global = 0.000187639, cumulative = 0.0100011
smoothSolver:  Solving for omega, Initial residual = 0.00171261, Final residual = 0.000154587, No Iterations 5
smoothSolver:  Solving for k, Initial residual = 0.0186282, Final residual = 0.00150846, No Iterations 6
ExecutionTime = 0.73 s  ClockTime = 1 s

scalarTransport execute: age
smoothSolver:  Solving for age, Initial residual = 0.0118693, Final residual = 0.00109308, No Iterations 12

Time = 54

smoothSolver:  Solving for Ux, Initial residual = 0.0129781, Final residual = 0.000892805, No Iterations 6
smoothSolver:  Solving for Uy, Initial residual = 0.00551845, Final residual = 0.000368033, No Iterations 6
GAMG:  Solving for p, Initial residual = 0.010929, Final residual = 0.000691634, No Iterations 2
time step continuity errors : sum local = 0.00183702, global = 0.000194352, cumulative = 0.0101955
smoothSolver:  Solving for omega, Initial residual = 0.00165863, Final residual = 0.000148329, No Iterations 5
smoothSolver:  Solving for k, Initial residual = 0.0181375, Final residual = 0.00146776, No Iterations 6
ExecutionTime = 0.74 s  ClockTime = 1 s

scalarTransport execute: age
smoothSolver:  Solving for age, Initial residual = 0.0122606, Final residual = 0.00114874, No Iterations 12

Time = 55

smoothSolver:  Solving for Ux, Initial residual = 0.0129871, Final residual = 0.000895208, No Iterations 6
smoothSolver:  Solving for Uy, Initial residual = 0.00564733, Final residual = 0.000379638, No Iterations 6
GAMG:  Solving for p, Initial residual = 0.0110359, Final residual = 0.000709086, No Iterations 2
time step continuity errors : sum local = 0.00185737, global = 0.000202271, cumulative = 0.0103977
smoothSolver:  Solving for omega, Initial residual = 0.00160089, Final residual = 0.000142366, No Iterations 5
smoothSolver:  Solving for k, Initial residual = 0.0176658, Final residual = 0.00142846, No Iterations 6
ExecutionTime = 0.75 s  ClockTime = 1 s

scalarTransport execute: age
smoothSolver:  Solving for age, Initial residual = 0.01273, Final residual = 0.00122119, No Iterations 12

Time = 56

smoothSolver:  Solving for Ux, Initial residual = 0.0130078, Final residual = 0.000896985, No Iterations 6
smoothSolver:  Solving for Uy, Initial residual = 0.00579719, Final residual = 0.000393497, No Iterations 6
GAMG:  Solving for p, Initial residual = 0.0110412, Final residual = 0.000691536, No Iterations 2
time step continuity errors : sum local = 0.00179245, global = 0.000210159, cumulative = 0.0106079
smoothSolver:  Solving for omega, Initial residual = 0.00156058, Final residual = 0.000136247, No Iterations 5
smoothSolver:  Solving for k, Initial residual = 0.0172042, Final residual = 0.00139045, No Iterations 6
ExecutionTime = 0.76 s  ClockTime = 1 s

scalarTransport execute: age
smoothSolver:  Solving for age, Initial residual = 0.0130041, Final residual = 0.00126478, No Iterations 12

Time = 57

smoothSolver:  Solving for Ux, Initial residual = 0.0130091, Final residual = 0.000898383, No Iterations 6
smoothSolver:  Solving for Uy, Initial residual = 0.00597528, Final residual = 0.000408747, No Iterations 6
GAMG:  Solving for p, Initial residual = 0.0110406, Final residual = 0.000684888, No Iterations 2
time step continuity errors : sum local = 0.0017598, global = 0.000217574, cumulative = 0.0108255
smoothSolver:  Solving for omega, Initial residual = 0.00150495, Final residual = 0.000130476, No Iterations 5
smoothSolver:  Solving for k, Initial residual = 0.0167601, Final residual = 0.00135366, No Iterations 6
ExecutionTime = 0.78 s  ClockTime = 1 s

scalarTransport execute: age
smoothSolver:  Solving for age, Initial residual = 0.0134523, Final residual = 0.00132693, No Iterations 12

Time = 58

smoothSolver:  Solving for Ux, Initial residual = 0.0129809, Final residual = 0.000899637, No Iterations 6
smoothSolver:  Solving for Uy, Initial residual = 0.00617387, Final residual = 0.000424267, No Iterations 6
GAMG:  Solving for p, Initial residual = 0.011033, Final residual = 0.000702011, No Iterations 2
time step continuity errors : sum local = 0.00179621, global = 0.000224481, cumulative = 0.01105
smoothSolver:  Solving for omega, Initial residual = 0.00144456, Final residual = 0.000125197, No Iterations 5
smoothSolver:  Solving for k, Initial residual = 0.0163304, Final residual = 0.00131807, No Iterations 6
ExecutionTime = 0.79 s  ClockTime = 1 s

scalarTransport execute: age
smoothSolver:  Solving for age, Initial residual = 0.0139874, Final residual = 0.00139672, No Iterations 12

Time = 59

smoothSolver:  Solving for Ux, Initial residual = 0.0129568, Final residual = 0.000899799, No Iterations 6
smoothSolver:  Solving for Uy, Initial residual = 0.00636336, Final residual = 0.000439484, No Iterations 6
GAMG:  Solving for p, Initial residual = 0.0110499, Final residual = 0.000718113, No Iterations 2
time step continuity errors : sum local = 0.00183125, global = 0.000230005, cumulative = 0.01128
smoothSolver:  Solving for omega, Initial residual = 0.00139899, Final residual = 0.00012017, No Iterations 5
smoothSolver:  Solving for k, Initial residual = 0.0159155, Final residual = 0.00128369, No Iterations 6
ExecutionTime = 0.8 s  ClockTime = 1 s

scalarTransport execute: age
smoothSolver:  Solving for age, Initial residual = 0.0146429, Final residual = 0.00146212, No Iterations 12

Time = 60

smoothSolver:  Solving for Ux, Initial residual = 0.0129155, Final residual = 0.000898091, No Iterations 6
smoothSolver:  Solving for Uy, Initial residual = 0.00654391, Final residual = 0.000454298, No Iterations 6
GAMG:  Solving for p, Initial residual = 0.0109876, Final residual = 0.00073279, No Iterations 2
time step continuity errors : sum local = 0.00186637, global = 0.000233964, cumulative = 0.0115139
smoothSolver:  Solving for omega, Initial residual = 0.001355, Final residual = 0.000115471, No Iterations 5
smoothSolver:  Solving for k, Initial residual = 0.015516, Final residual = 0.00125051, No Iterations 6
ExecutionTime = 0.82 s  ClockTime = 1 s

scalarTransport execute: age
smoothSolver:  Solving for age, Initial residual = 0.0152431, Final residual = 0.00151848, No Iterations 12

Time = 61

smoothSolver:  Solving for Ux, Initial residual = 0.0128447, Final residual = 0.00089513, No Iterations 6
smoothSolver:  Solving for Uy, Initial residual = 0.00671655, Final residual = 0.000468574, No Iterations 6
GAMG:  Solving for p, Initial residual = 0.0108659, Final residual = 0.000749916, No Iterations 2
time step continuity errors : sum local = 0.0019055, global = 0.000235766, cumulative = 0.0117497
smoothSolver:  Solving for omega, Initial residual = 0.00131012, Final residual = 0.000111031, No Iterations 5
smoothSolver:  Solving for k, Initial residual = 0.0151301, Final residual = 0.00121842, No Iterations 6
ExecutionTime = 0.83 s  ClockTime = 1 s

scalarTransport execute: age
smoothSolver:  Solving for age, Initial residual = 0.0159593, Final residual = 0.00156002, No Iterations 12

Time = 62

smoothSolver:  Solving for Ux, Initial residual = 0.0127645, Final residual = 0.000891183, No Iterations 6
smoothSolver:  Solving for Uy, Initial residual = 0.0068733, Final residual = 0.000482042, No Iterations 6
GAMG:  Solving for p, Initial residual = 0.0106527, Final residual = 0.000762998, No Iterations 2
time step continuity errors : sum local = 0.00193453, global = 0.000235781, cumulative = 0.0119855
smoothSolver:  Solving for omega, Initial residual = 0.00126725, Final residual = 0.000106827, No Iterations 5
smoothSolver:  Solving for k, Initial residual = 0.0147562, Final residual = 0.00118741, No Iterations 6
ExecutionTime = 0.85 s  ClockTime = 1 s

scalarTransport execute: age
smoothSolver:  Solving for age, Initial residual = 0.0169815, Final residual = 0.00169409, No Iterations 12

Time = 63

smoothSolver:  Solving for Ux, Initial residual = 0.0126768, Final residual = 0.000886188, No Iterations 6
smoothSolver:  Solving for Uy, Initial residual = 0.00700709, Final residual = 0.000494521, No Iterations 6
GAMG:  Solving for p, Initial residual = 0.0103049, Final residual = 0.000756067, No Iterations 2
time step continuity errors : sum local = 0.00191164, global = 0.000234279, cumulative = 0.0122198
smoothSolver:  Solving for omega, Initial residual = 0.00122065, Final residual = 0.000102856, No Iterations 5
smoothSolver:  Solving for k, Initial residual = 0.014397, Final residual = 0.00115747, No Iterations 6
ExecutionTime = 0.86 s  ClockTime = 1 s

scalarTransport execute: age
smoothSolver:  Solving for age, Initial residual = 0.0178253, Final residual = 0.00169838, No Iterations 12

Time = 64

smoothSolver:  Solving for Ux, Initial residual = 0.0125741, Final residual = 0.000880845, No Iterations 6
smoothSolver:  Solving for Uy, Initial residual = 0.00711703, Final residual = 0.000505912, No Iterations 6
GAMG:  Solving for p, Initial residual = 0.00989885, Final residual = 0.00073699, No Iterations 2
time step continuity errors : sum local = 0.00185576, global = 0.000230535, cumulative = 0.0124503
smoothSolver:  Solving for omega, Initial residual = 0.00117858, Final residual = 9.9256e-05, No Iterations 5
smoothSolver:  Solving for k, Initial residual = 0.0140503, Final residual = 0.00112852, No Iterations 6
ExecutionTime = 0.87 s  ClockTime = 1 s

scalarTransport execute: age
smoothSolver:  Solving for age, Initial residual = 0.0185017, Final residual = 0.00165834, No Iterations 12

Time = 65

smoothSolver:  Solving for Ux, Initial residual = 0.0124548, Final residual = 0.000875815, No Iterations 6
smoothSolver:  Solving for Uy, Initial residual = 0.00720343, Final residual = 0.000515827, No Iterations 6
GAMG:  Solving for p, Initial residual = 0.00957817, Final residual = 0.000720915, No Iterations 2
time step continuity errors : sum local = 0.00180609, global = 0.000225348, cumulative = 0.0126756
smoothSolver:  Solving for omega, Initial residual = 0.00114426, Final residual = 9.59333e-05, No Iterations 5
smoothSolver:  Solving for k, Initial residual = 0.0137141, Final residual = 0.00110054, No Iterations 6
ExecutionTime = 0.89 s  ClockTime = 1 s

scalarTransport execute: age
smoothSolver:  Solving for age, Initial residual = 0.0191571, Final residual = 0.00165225, No Iterations 12

Time = 66

smoothSolver:  Solving for Ux, Initial residual = 0.012343, Final residual = 0.000870944, No Iterations 6
smoothSolver:  Solving for Uy, Initial residual = 0.00726824, Final residual = 0.000524371, No Iterations 6
GAMG:  Solving for p, Initial residual = 0.00937408, Final residual = 0.000704403, No Iterations 2
time step continuity errors : sum local = 0.0017566, global = 0.000219187, cumulative = 0.0128948
smoothSolver:  Solving for omega, Initial residual = 0.00111644, Final residual = 9.2862e-05, No Iterations 5
smoothSolver:  Solving for k, Initial residual = 0.0133871, Final residual = 0.00107345, No Iterations 6
ExecutionTime = 0.9 s  ClockTime = 1 s

scalarTransport execute: age
smoothSolver:  Solving for age, Initial residual = 0.0191846, Final residual = 0.00191348, No Iterations 11

Time = 67

smoothSolver:  Solving for Ux, Initial residual = 0.0122374, Final residual = 0.000866036, No Iterations 6
smoothSolver:  Solving for Uy, Initial residual = 0.00731242, Final residual = 0.000531457, No Iterations 6
GAMG:  Solving for p, Initial residual = 0.00921982, Final residual = 0.000687999, No Iterations 2
time step continuity errors : sum local = 0.00170839, global = 0.000212517, cumulative = 0.0131073
smoothSolver:  Solving for omega, Initial residual = 0.00108818, Final residual = 8.98903e-05, No Iterations 5
smoothSolver:  Solving for k, Initial residual = 0.0130697, Final residual = 0.00104721, No Iterations 6
ExecutionTime = 0.91 s  ClockTime = 1 s

scalarTransport execute: age
smoothSolver:  Solving for age, Initial residual = 0.0190255, Final residual = 0.00180712, No Iterations 11

Time = 68

smoothSolver:  Solving for Ux, Initial residual = 0.0121541, Final residual = 0.000861065, No Iterations 6
smoothSolver:  Solving for Uy, Initial residual = 0.00734431, Final residual = 0.000537095, No Iterations 6
GAMG:  Solving for p, Initial residual = 0.00908418, Final residual = 0.000669437, No Iterations 2
time step continuity errors : sum local = 0.00165597, global = 0.000205398, cumulative = 0.0133127
smoothSolver:  Solving for omega, Initial residual = 0.00106337, Final residual = 8.71012e-05, No Iterations 5
smoothSolver:  Solving for k, Initial residual = 0.0127602, Final residual = 0.00102177, No Iterations 6
ExecutionTime = 0.92 s  ClockTime = 1 s

scalarTransport execute: age
smoothSolver:  Solving for age, Initial residual = 0.0180898, Final residual = 0.00169498, No Iterations 11

Time = 69

smoothSolver:  Solving for Ux, Initial residual = 0.0120956, Final residual = 0.000856006, No Iterations 6
smoothSolver:  Solving for Uy, Initial residual = 0.00736005, Final residual = 0.000541355, No Iterations 6
GAMG:  Solving for p, Initial residual = 0.00890876, Final residual = 0.000647461, No Iterations 2
time step continuity errors : sum local = 0.00159671, global = 0.000198204, cumulative = 0.0135109
smoothSolver:  Solving for omega, Initial residual = 0.00103436, Final residual = 8.43604e-05, No Iterations 5
smoothSolver:  Solving for k, Initial residual = 0.01246, Final residual = 0.000997124, No Iterations 6
ExecutionTime = 0.94 s  ClockTime = 1 s

scalarTransport execute: age
smoothSolver:  Solving for age, Initial residual = 0.0166019, Final residual = 0.00153516, No Iterations 11

Time = 70

smoothSolver:  Solving for Ux, Initial residual = 0.0120383, Final residual = 0.000851254, No Iterations 6
smoothSolver:  Solving for Uy, Initial residual = 0.00736063, Final residual = 0.000544408, No Iterations 6
GAMG:  Solving for p, Initial residual = 0.0086844, Final residual = 0.000626594, No Iterations 2
time step continuity errors : sum local = 0.0015408, global = 0.00018614, cumulative = 0.0136971
smoothSolver:  Solving for omega, Initial residual = 0.00100805, Final residual = 8.17412e-05, No Iterations 5
smoothSolver:  Solving for k, Initial residual = 0.0121688, Final residual = 0.000973258, No Iterations 6
ExecutionTime = 0.95 s  ClockTime = 1 s

scalarTransport execute: age
smoothSolver:  Solving for age, Initial residual = 0.0153187, Final residual = 0.00141732, No Iterations 11

Time = 71

smoothSolver:  Solving for Ux, Initial residual = 0.0119953, Final residual = 0.000848715, No Iterations 6
smoothSolver:  Solving for Uy, Initial residual = 0.00734262, Final residual = 0.000545987, No Iterations 6
GAMG:  Solving for p, Initial residual = 0.00848264, Final residual = 0.000599756, No Iterations 2
time step continuity errors : sum local = 0.00147022, global = 0.000173962, cumulative = 0.013871
smoothSolver:  Solving for omega, Initial residual = 0.000980724, Final residual = 7.92641e-05, No Iterations 5
smoothSolver:  Solving for k, Initial residual = 0.0118857, Final residual = 0.000950097, No Iterations 6
ExecutionTime = 0.96 s  ClockTime = 1 s

scalarTransport execute: age
smoothSolver:  Solving for age, Initial residual = 0.0144563, Final residual = 0.00141128, No Iterations 11

Time = 72

smoothSolver:  Solving for Ux, Initial residual = 0.0119441, Final residual = 0.000845435, No Iterations 6
smoothSolver:  Solving for Uy, Initial residual = 0.00731381, Final residual = 0.000546814, No Iterations 6
GAMG:  Solving for p, Initial residual = 0.00831408, Final residual = 0.000576643, No Iterations 2
time step continuity errors : sum local = 0.00140747, global = 0.000162098, cumulative = 0.0140331
smoothSolver:  Solving for omega, Initial residual = 0.000955207, Final residual = 7.69296e-05, No Iterations 5
smoothSolver:  Solving for k, Initial residual = 0.0116117, Final residual = 0.000927605, No Iterations 6
ExecutionTime = 0.98 s  ClockTime = 1 s

scalarTransport execute: age
smoothSolver:  Solving for age, Initial residual = 0.013815, Final residual = 0.00128603, No Iterations 12

Time = 73

smoothSolver:  Solving for Ux, Initial residual = 0.0118761, Final residual = 0.000840684, No Iterations 6
smoothSolver:  Solving for Uy, Initial residual = 0.00727335, Final residual = 0.000546689, No Iterations 6
GAMG:  Solving for p, Initial residual = 0.0081982, Final residual = 0.000555726, No Iterations 2
time step continuity errors : sum local = 0.00135018, global = 0.000149183, cumulative = 0.0141823
smoothSolver:  Solving for omega, Initial residual = 0.000931341, Final residual = 7.47171e-05, No Iterations 5
smoothSolver:  Solving for k, Initial residual = 0.0113448, Final residual = 0.000905717, No Iterations 6
ExecutionTime = 0.99 s  ClockTime = 1 s

scalarTransport execute: age
smoothSolver:  Solving for age, Initial residual = 0.0134484, Final residual = 0.0012724, No Iterations 12

Time = 74

smoothSolver:  Solving for Ux, Initial residual = 0.0117966, Final residual = 0.000834737, No Iterations 6
smoothSolver:  Solving for Uy, Initial residual = 0.00723163, Final residual = 0.000545838, No Iterations 6
GAMG:  Solving for p, Initial residual = 0.00814916, Final residual = 0.000538155, No Iterations 2
time step continuity errors : sum local = 0.00130152, global = 0.000136232, cumulative = 0.0143186
smoothSolver:  Solving for omega, Initial residual = 0.000910034, Final residual = 7.25944e-05, No Iterations 5
smoothSolver:  Solving for k, Initial residual = 0.0110872, Final residual = 0.00088438, No Iterations 6
ExecutionTime = 1 s  ClockTime = 1 s

scalarTransport execute: age
smoothSolver:  Solving for age, Initial residual = 0.0133571, Final residual = 0.00123035, No Iterations 12

Time = 75

smoothSolver:  Solving for Ux, Initial residual = 0.0117112, Final residual = 0.00082806, No Iterations 6
smoothSolver:  Solving for Uy, Initial residual = 0.00718252, Final residual = 0.000544158, No Iterations 6
GAMG:  Solving for p, Initial residual = 0.00809356, Final residual = 0.000525299, No Iterations 2
time step continuity errors : sum local = 0.00126464, global = 0.000124782, cumulative = 0.0144433
smoothSolver:  Solving for omega, Initial residual = 0.000889705, Final residual = 7.05716e-05, No Iterations 5
smoothSolver:  Solving for k, Initial residual = 0.0108357, Final residual = 0.000863519, No Iterations 6
ExecutionTime = 1.02 s  ClockTime = 1 s

scalarTransport execute: age
smoothSolver:  Solving for age, Initial residual = 0.0131164, Final residual = 0.00120726, No Iterations 12

Time = 76

smoothSolver:  Solving for Ux, Initial residual = 0.0116178, Final residual = 0.000821016, No Iterations 6
smoothSolver:  Solving for Uy, Initial residual = 0.00712969, Final residual = 0.000541644, No Iterations 6
GAMG:  Solving for p, Initial residual = 0.00804138, Final residual = 0.000518084, No Iterations 2
time step continuity errors : sum local = 0.00124178, global = 0.00011486, cumulative = 0.0145582
smoothSolver:  Solving for omega, Initial residual = 0.000868615, Final residual = 6.86231e-05, No Iterations 5
smoothSolver:  Solving for k, Initial residual = 0.0105902, Final residual = 0.000843117, No Iterations 6
ExecutionTime = 1.03 s  ClockTime = 1 s

scalarTransport execute: age
smoothSolver:  Solving for age, Initial residual = 0.0129439, Final residual = 0.00120615, No Iterations 12

Time = 77

smoothSolver:  Solving for Ux, Initial residual = 0.0115219, Final residual = 0.000813449, No Iterations 6
smoothSolver:  Solving for Uy, Initial residual = 0.00707187, Final residual = 0.000538432, No Iterations 6
GAMG:  Solving for p, Initial residual = 0.00799258, Final residual = 0.000514336, No Iterations 2
time step continuity errors : sum local = 0.00122721, global = 0.000106773, cumulative = 0.014665
smoothSolver:  Solving for omega, Initial residual = 0.000849608, Final residual = 6.67583e-05, No Iterations 5
smoothSolver:  Solving for k, Initial residual = 0.010349, Final residual = 0.000823109, No Iterations 6
ExecutionTime = 1.04 s  ClockTime = 1 s

scalarTransport execute: age
smoothSolver:  Solving for age, Initial residual = 0.0127659, Final residual = 0.00122755, No Iterations 12

Time = 78

smoothSolver:  Solving for Ux, Initial residual = 0.0114145, Final residual = 0.000805367, No Iterations 6
smoothSolver:  Solving for Uy, Initial residual = 0.00700762, Final residual = 0.000534169, No Iterations 6
GAMG:  Solving for p, Initial residual = 0.00795994, Final residual = 0.00051191, No Iterations 2
time step continuity errors : sum local = 0.00121551, global = 0.000101634, cumulative = 0.0147666
smoothSolver:  Solving for omega, Initial residual = 0.000829778, Final residual = 6.4902e-05, No Iterations 5
smoothSolver:  Solving for k, Initial residual = 0.0101124, Final residual = 0.000803488, No Iterations 6
ExecutionTime = 1.06 s  ClockTime = 1 s

scalarTransport execute: age
smoothSolver:  Solving for age, Initial residual = 0.0126142, Final residual = 0.00125712, No Iterations 12

Time = 79

smoothSolver:  Solving for Ux, Initial residual = 0.0112977, Final residual = 0.000796848, No Iterations 6
smoothSolver:  Solving for Uy, Initial residual = 0.0069402, Final residual = 0.000528952, No Iterations 6
GAMG:  Solving for p, Initial residual = 0.00795533, Final residual = 0.000507166, No Iterations 2
time step continuity errors : sum local = 0.00119807, global = 0.000107453, cumulative = 0.0148741
smoothSolver:  Solving for omega, Initial residual = 0.000809911, Final residual = 6.30865e-05, No Iterations 5
smoothSolver:  Solving for k, Initial residual = 0.00987973, Final residual = 0.000784194, No Iterations 6
ExecutionTime = 1.07 s  ClockTime = 1 s

scalarTransport execute: age
smoothSolver:  Solving for age, Initial residual = 0.0123935, Final residual = 0.00110711, No Iterations 13

Time = 80

smoothSolver:  Solving for Ux, Initial residual = 0.011153, Final residual = 0.00078628, No Iterations 6
smoothSolver:  Solving for Uy, Initial residual = 0.00687468, Final residual = 0.000523283, No Iterations 6
GAMG:  Solving for p, Initial residual = 0.00794864, Final residual = 0.000510539, No Iterations 2
time step continuity errors : sum local = 0.00120048, global = 0.000103911, cumulative = 0.014978
smoothSolver:  Solving for omega, Initial residual = 0.000794536, Final residual = 6.13413e-05, No Iterations 5
smoothSolver:  Solving for k, Initial residual = 0.00965069, Final residual = 0.000765242, No Iterations 6
ExecutionTime = 1.08 s  ClockTime = 1 s

scalarTransport execute: age
smoothSolver:  Solving for age, Initial residual = 0.012077, Final residual = 0.00111108, No Iterations 13

Time = 81

smoothSolver:  Solving for Ux, Initial residual = 0.0110349, Final residual = 0.000777761, No Iterations 6
smoothSolver:  Solving for Uy, Initial residual = 0.00677883, Final residual = 0.000514766, No Iterations 6
GAMG:  Solving for p, Initial residual = 0.0079487, Final residual = 0.00050237, No Iterations 2
time step continuity errors : sum local = 0.00117477, global = 0.000102738, cumulative = 0.0150807
smoothSolver:  Solving for omega, Initial residual = 0.000775519, Final residual = 5.96837e-05, No Iterations 5
smoothSolver:  Solving for k, Initial residual = 0.00942581, Final residual = 0.000746578, No Iterations 6
ExecutionTime = 1.1 s  ClockTime = 1 s

scalarTransport execute: age
smoothSolver:  Solving for age, Initial residual = 0.0116386, Final residual = 0.00111922, No Iterations 13

Time = 82

smoothSolver:  Solving for Ux, Initial residual = 0.0108982, Final residual = 0.000768324, No Iterations 6
smoothSolver:  Solving for Uy, Initial residual = 0.00667663, Final residual = 0.000506213, No Iterations 6
GAMG:  Solving for p, Initial residual = 0.00792067, Final residual = 0.000494643, No Iterations 2
time step continuity errors : sum local = 0.00114959, global = 0.000102472, cumulative = 0.0151832
smoothSolver:  Solving for omega, Initial residual = 0.00075911, Final residual = 5.80337e-05, No Iterations 5
smoothSolver:  Solving for k, Initial residual = 0.00920349, Final residual = 0.000728189, No Iterations 6
ExecutionTime = 1.11 s  ClockTime = 1 s

scalarTransport execute: age
smoothSolver:  Solving for age, Initial residual = 0.0111647, Final residual = 0.0009879, No Iterations 14

Time = 83

smoothSolver:  Solving for Ux, Initial residual = 0.0107532, Final residual = 0.000758124, No Iterations 6
smoothSolver:  Solving for Uy, Initial residual = 0.00656138, Final residual = 0.000496517, No Iterations 6
GAMG:  Solving for p, Initial residual = 0.00787301, Final residual = 0.000487098, No Iterations 2
time step continuity errors : sum local = 0.00112501, global = 0.00010264, cumulative = 0.0152858
smoothSolver:  Solving for omega, Initial residual = 0.000742529, Final residual = 5.64062e-05, No Iterations 5
smoothSolver:  Solving for k, Initial residual = 0.00898397, Final residual = 0.000710059, No Iterations 6
ExecutionTime = 1.12 s  ClockTime = 1 s

scalarTransport execute: age
smoothSolver:  Solving for age, Initial residual = 0.0108313, Final residual = 0.00100243, No Iterations 14

Time = 84

smoothSolver:  Solving for Ux, Initial residual = 0.0106039, Final residual = 0.000747361, No Iterations 6
smoothSolver:  Solving for Uy, Initial residual = 0.00643033, Final residual = 0.000485516, No Iterations 6
GAMG:  Solving for p, Initial residual = 0.00780494, Final residual = 0.000478005, No Iterations 2
time step continuity errors : sum local = 0.00109691, global = 0.000102848, cumulative = 0.0153887
smoothSolver:  Solving for omega, Initial residual = 0.000725915, Final residual = 5.47752e-05, No Iterations 5
smoothSolver:  Solving for k, Initial residual = 0.00876701, Final residual = 0.000692186, No Iterations 6
ExecutionTime = 1.13 s  ClockTime = 1 s

scalarTransport execute: age
smoothSolver:  Solving for age, Initial residual = 0.0105779, Final residual = 0.00101562, No Iterations 14

Time = 85

smoothSolver:  Solving for Ux, Initial residual = 0.0104459, Final residual = 0.000736097, No Iterations 6
smoothSolver:  Solving for Uy, Initial residual = 0.00628882, Final residual = 0.00047336, No Iterations 6
GAMG:  Solving for p, Initial residual = 0.00771438, Final residual = 0.000467892, No Iterations 2
time step continuity errors : sum local = 0.00106702, global = 0.000103129, cumulative = 0.0154918
smoothSolver:  Solving for omega, Initial residual = 0.000707863, Final residual = 5.30653e-05, No Iterations 5
smoothSolver:  Solving for k, Initial residual = 0.0085533, Final residual = 0.000674593, No Iterations 6
ExecutionTime = 1.15 s  ClockTime = 1 s

scalarTransport execute: age
smoothSolver:  Solving for age, Initial residual = 0.0103703, Final residual = 0.00103375, No Iterations 14

Time = 86

smoothSolver:  Solving for Ux, Initial residual = 0.0102782, Final residual = 0.000724072, No Iterations 6
smoothSolver:  Solving for Uy, Initial residual = 0.00613579, Final residual = 0.000460313, No Iterations 6
GAMG:  Solving for p, Initial residual = 0.00762598, Final residual = 0.000464173, No Iterations 2
time step continuity errors : sum local = 0.00105227, global = 0.000115619, cumulative = 0.0156074
smoothSolver:  Solving for omega, Initial residual = 0.000690434, Final residual = 5.14367e-05, No Iterations 5
smoothSolver:  Solving for k, Initial residual = 0.00834151, Final residual = 0.000657191, No Iterations 6
ExecutionTime = 1.16 s  ClockTime = 1 s

scalarTransport execute: age
smoothSolver:  Solving for age, Initial residual = 0.0103229, Final residual = 0.000912966, No Iterations 15

Time = 87

smoothSolver:  Solving for Ux, Initial residual = 0.0100751, Final residual = 0.000709447, No Iterations 6
smoothSolver:  Solving for Uy, Initial residual = 0.00598534, Final residual = 0.000447403, No Iterations 6
GAMG:  Solving for p, Initial residual = 0.00753476, Final residual = 0.000452607, No Iterations 2
time step continuity errors : sum local = 0.00102098, global = 0.000112113, cumulative = 0.0157195
smoothSolver:  Solving for omega, Initial residual = 0.000677887, Final residual = 4.98297e-05, No Iterations 5
smoothSolver:  Solving for k, Initial residual = 0.00813197, Final residual = 0.000640027, No Iterations 6
ExecutionTime = 1.17 s  ClockTime = 1 s

scalarTransport execute: age
smoothSolver:  Solving for age, Initial residual = 0.0102918, Final residual = 0.000910785, No Iterations 15

Time = 88

smoothSolver:  Solving for Ux, Initial residual = 0.00990247, Final residual = 0.00069711, No Iterations 6
smoothSolver:  Solving for Uy, Initial residual = 0.00579844, Final residual = 0.000431438, No Iterations 6
GAMG:  Solving for p, Initial residual = 0.00737757, Final residual = 0.000434546, No Iterations 2
time step continuity errors : sum local = 0.00097478, global = 0.000111225, cumulative = 0.0158308
smoothSolver:  Solving for omega, Initial residual = 0.000661795, Final residual = 4.82922e-05, No Iterations 5
smoothSolver:  Solving for k, Initial residual = 0.00792475, Final residual = 0.000623118, No Iterations 6
ExecutionTime = 1.19 s  ClockTime = 1 s

scalarTransport execute: age
smoothSolver:  Solving for age, Initial residual = 0.0102499, Final residual = 0.000909157, No Iterations 15

Time = 89

smoothSolver:  Solving for Ux, Initial residual = 0.00970983, Final residual = 0.000683331, No Iterations 6
smoothSolver:  Solving for Uy, Initial residual = 0.00562549, Final residual = 0.000416875, No Iterations 6
GAMG:  Solving for p, Initial residual = 0.00725699, Final residual = 0.00042715, No Iterations 2
time step continuity errors : sum local = 0.000953477, global = 0.000110621, cumulative = 0.0159414
smoothSolver:  Solving for omega, Initial residual = 0.000639941, Final residual = 4.65958e-05, No Iterations 5
smoothSolver:  Solving for k, Initial residual = 0.00771902, Final residual = 0.000606504, No Iterations 6
ExecutionTime = 1.2 s  ClockTime = 1 s

scalarTransport execute: age
smoothSolver:  Solving for age, Initial residual = 0.0101357, Final residual = 0.000902151, No Iterations 15

Time = 90

smoothSolver:  Solving for Ux, Initial residual = 0.00949603, Final residual = 0.000668134, No Iterations 6
smoothSolver:  Solving for Uy, Initial residual = 0.00545128, Final residual = 0.000402054, No Iterations 6
GAMG:  Solving for p, Initial residual = 0.00715402, Final residual = 0.000425366, No Iterations 2
time step continuity errors : sum local = 0.000945217, global = 0.000109592, cumulative = 0.016051
smoothSolver:  Solving for omega, Initial residual = 0.000623696, Final residual = 4.51176e-05, No Iterations 5
smoothSolver:  Solving for k, Initial residual = 0.00751608, Final residual = 0.000590072, No Iterations 6
ExecutionTime = 1.21 s  ClockTime = 1 s

scalarTransport execute: age
smoothSolver:  Solving for age, Initial residual = 0.00994916, Final residual = 0.000883401, No Iterations 15

Time = 91

smoothSolver:  Solving for Ux, Initial residual = 0.00927314, Final residual = 0.000652172, No Iterations 6
smoothSolver:  Solving for Uy, Initial residual = 0.0052702, Final residual = 0.000386585, No Iterations 6
GAMG:  Solving for p, Initial residual = 0.00703957, Final residual = 0.000425426, No Iterations 2
time step continuity errors : sum local = 0.000941314, global = 0.000108783, cumulative = 0.0161598
smoothSolver:  Solving for omega, Initial residual = 0.000609691, Final residual = 4.37736e-05, No Iterations 5
smoothSolver:  Solving for k, Initial residual = 0.00731432, Final residual = 0.000573827, No Iterations 6
ExecutionTime = 1.23 s  ClockTime = 1 s

scalarTransport execute: age
smoothSolver:  Solving for age, Initial residual = 0.00961317, Final residual = 0.00084055, No Iterations 15

Time = 92

smoothSolver:  Solving for Ux, Initial residual = 0.00903998, Final residual = 0.000635684, No Iterations 6
smoothSolver:  Solving for Uy, Initial residual = 0.00508828, Final residual = 0.00037084, No Iterations 6
GAMG:  Solving for p, Initial residual = 0.00691133, Final residual = 0.000423555, No Iterations 2
time step continuity errors : sum local = 0.000932928, global = 0.000107835, cumulative = 0.0162676
smoothSolver:  Solving for omega, Initial residual = 0.00059421, Final residual = 4.24471e-05, No Iterations 5
smoothSolver:  Solving for k, Initial residual = 0.0071147, Final residual = 0.000557787, No Iterations 6
ExecutionTime = 1.24 s  ClockTime = 1 s

scalarTransport execute: age
smoothSolver:  Solving for age, Initial residual = 0.00920435, Final residual = 0.000881025, No Iterations 14

Time = 93

smoothSolver:  Solving for Ux, Initial residual = 0.00880077, Final residual = 0.00061887, No Iterations 6
smoothSolver:  Solving for Uy, Initial residual = 0.00490732, Final residual = 0.000355109, No Iterations 6
GAMG:  Solving for p, Initial residual = 0.00676725, Final residual = 0.000419581, No Iterations 2
time step continuity errors : sum local = 0.000920572, global = 0.000107129, cumulative = 0.0163747
smoothSolver:  Solving for omega, Initial residual = 0.000578686, Final residual = 4.11835e-05, No Iterations 5
smoothSolver:  Solving for k, Initial residual = 0.00691683, Final residual = 0.000541934, No Iterations 6
ExecutionTime = 1.25 s  ClockTime = 1 s

scalarTransport execute: age
smoothSolver:  Solving for age, Initial residual = 0.00884183, Final residual = 0.000804611, No Iterations 14

Time = 94

smoothSolver:  Solving for Ux, Initial residual = 0.00855793, Final residual = 0.000601557, No Iterations 6
smoothSolver:  Solving for Uy, Initial residual = 0.00472848, Final residual = 0.000339575, No Iterations 6
GAMG:  Solving for p, Initial residual = 0.00661705, Final residual = 0.000413834, No Iterations 2
time step continuity errors : sum local = 0.000904978, global = 0.000106519, cumulative = 0.0164812
smoothSolver:  Solving for omega, Initial residual = 0.000563701, Final residual = 3.99819e-05, No Iterations 5
smoothSolver:  Solving for k, Initial residual = 0.00672136, Final residual = 0.000526274, No Iterations 6
ExecutionTime = 1.27 s  ClockTime = 1 s

scalarTransport execute: age
smoothSolver:  Solving for age, Initial residual = 0.00846842, Final residual = 0.000735928, No Iterations 14

Time = 95

smoothSolver:  Solving for Ux, Initial residual = 0.00830377, Final residual = 0.000583691, No Iterations 6
smoothSolver:  Solving for Uy, Initial residual = 0.0045531, Final residual = 0.000324159, No Iterations 6
GAMG:  Solving for p, Initial residual = 0.00646365, Final residual = 0.000406281, No Iterations 2
time step continuity errors : sum local = 0.000886135, global = 0.000106345, cumulative = 0.0165876
smoothSolver:  Solving for omega, Initial residual = 0.000549179, Final residual = 3.88284e-05, No Iterations 5
smoothSolver:  Solving for k, Initial residual = 0.00652787, Final residual = 0.000510792, No Iterations 6
ExecutionTime = 1.28 s  ClockTime = 1 s

scalarTransport execute: age
smoothSolver:  Solving for age, Initial residual = 0.00804135, Final residual = 0.00076359, No Iterations 13

Time = 96

smoothSolver:  Solving for Ux, Initial residual = 0.00804236, Final residual = 0.000565323, No Iterations 6
[...]

Time = 480

smoothSolver:  Solving for Ux, Initial residual = 9.431e-07, Final residual = 8.53302e-08, No Iterations 5
smoothSolver:  Solving for Uy, Initial residual = 6.66148e-07, Final residual = 5.89225e-08, No Iterations 5
GAMG:  Solving for p, Initial residual = 2.63712e-06, Final residual = 1.34543e-07, No Iterations 2
time step continuity errors : sum local = 2.91686e-07, global = 6.94295e-09, cumulative = 0.0214152
smoothSolver:  Solving for omega, Initial residual = 1.04533e-07, Final residual = 1.04062e-08, No Iterations 4
smoothSolver:  Solving for k, Initial residual = 2.9213e-07, Final residual = 2.88381e-08, No Iterations 5
ExecutionTime = 6.14 s  ClockTime = 6 s

scalarTransport execute: age
smoothSolver:  Solving for age, Initial residual = 0.000344192, Final residual = 3.16662e-05, No Iterations 15

Time = 481

smoothSolver:  Solving for Ux, Initial residual = 9.03088e-07, Final residual = 8.16699e-08, No Iterations 5
smoothSolver:  Solving for Uy, Initial residual = 6.41522e-07, Final residual = 5.68158e-08, No Iterations 5
GAMG:  Solving for p, Initial residual = 2.54124e-06, Final residual = 1.30568e-07, No Iterations 2
time step continuity errors : sum local = 2.8307e-07, global = 6.60595e-09, cumulative = 0.0214152
smoothSolver:  Solving for omega, Initial residual = 1.01298e-07, Final residual = 1.00309e-08, No Iterations 4
smoothSolver:  Solving for k, Initial residual = 2.85649e-07, Final residual = 2.83267e-08, No Iterations 5
ExecutionTime = 6.15 s  ClockTime = 6 s

scalarTransport execute: age
smoothSolver:  Solving for age, Initial residual = 0.000343345, Final residual = 3.15885e-05, No Iterations 15

Time = 482

smoothSolver:  Solving for Ux, Initial residual = 8.64986e-07, Final residual = 7.81439e-08, No Iterations 5
smoothSolver:  Solving for Uy, Initial residual = 6.15682e-07, Final residual = 5.45054e-08, No Iterations 5
GAMG:  Solving for p, Initial residual = 2.44496e-06, Final residual = 1.25798e-07, No Iterations 2
time step continuity errors : sum local = 2.72728e-07, global = 6.35404e-09, cumulative = 0.0214153
smoothSolver:  Solving for omega, Initial residual = 9.73372e-08, Final residual = 9.66892e-09, No Iterations 4
smoothSolver:  Solving for k, Initial residual = 2.79238e-07, Final residual = 2.78353e-08, No Iterations 5
ExecutionTime = 6.17 s  ClockTime = 6 s

scalarTransport execute: age
smoothSolver:  Solving for age, Initial residual = 0.000342503, Final residual = 3.15113e-05, No Iterations 15

Time = 483

smoothSolver:  Solving for Ux, Initial residual = 8.27732e-07, Final residual = 7.46953e-08, No Iterations 5
smoothSolver:  Solving for Uy, Initial residual = 5.90556e-07, Final residual = 5.2253e-08, No Iterations 5
GAMG:  Solving for p, Initial residual = 2.34789e-06, Final residual = 1.19507e-07, No Iterations 2
time step continuity errors : sum local = 2.59089e-07, global = 4.59376e-09, cumulative = 0.0214153
smoothSolver:  Solving for omega, Initial residual = 9.41221e-08, Final residual = 9.32257e-09, No Iterations 4
smoothSolver:  Solving for k, Initial residual = 2.73205e-07, Final residual = 1.75538e-08, No Iterations 6
ExecutionTime = 6.18 s  ClockTime = 6 s

scalarTransport execute: age
smoothSolver:  Solving for age, Initial residual = 0.000341665, Final residual = 3.14344e-05, No Iterations 15

Time = 484

smoothSolver:  Solving for Ux, Initial residual = 7.89419e-07, Final residual = 7.11018e-08, No Iterations 5
smoothSolver:  Solving for Uy, Initial residual = 5.66234e-07, Final residual = 5.00668e-08, No Iterations 5
GAMG:  Solving for p, Initial residual = 2.25587e-06, Final residual = 1.15611e-07, No Iterations 2
time step continuity errors : sum local = 2.50644e-07, global = 5.14205e-09, cumulative = 0.0214153
smoothSolver:  Solving for omega, Initial residual = 9.00861e-08, Final residual = 8.99426e-09, No Iterations 4
smoothSolver:  Solving for k, Initial residual = 2.66827e-07, Final residual = 1.72577e-08, No Iterations 6
ExecutionTime = 6.19 s  ClockTime = 6 s

scalarTransport execute: age
smoothSolver:  Solving for age, Initial residual = 0.000340833, Final residual = 3.13581e-05, No Iterations 15

Time = 485

smoothSolver:  Solving for Ux, Initial residual = 7.53246e-07, Final residual = 6.77608e-08, No Iterations 5
smoothSolver:  Solving for Uy, Initial residual = 5.44401e-07, Final residual = 4.81981e-08, No Iterations 5
GAMG:  Solving for p, Initial residual = 2.17089e-06, Final residual = 1.12019e-07, No Iterations 2
time step continuity errors : sum local = 2.42856e-07, global = 5.3926e-09, cumulative = 0.0214153
smoothSolver:  Solving for omega, Initial residual = 8.70553e-08, Final residual = 8.66729e-09, No Iterations 4
smoothSolver:  Solving for k, Initial residual = 2.60884e-07, Final residual = 1.69806e-08, No Iterations 6
ExecutionTime = 6.2 s  ClockTime = 6 s

scalarTransport execute: age
smoothSolver:  Solving for age, Initial residual = 0.000340006, Final residual = 3.12822e-05, No Iterations 15

Time = 486

smoothSolver:  Solving for Ux, Initial residual = 7.18628e-07, Final residual = 6.4549e-08, No Iterations 5
smoothSolver:  Solving for Uy, Initial residual = 5.21675e-07, Final residual = 4.61643e-08, No Iterations 5
GAMG:  Solving for p, Initial residual = 2.08392e-06, Final residual = 1.07844e-07, No Iterations 2
time step continuity errors : sum local = 2.33804e-07, global = 5.63746e-09, cumulative = 0.0214153
smoothSolver:  Solving for omega, Initial residual = 8.37387e-08, Final residual = 8.34904e-09, No Iterations 4
smoothSolver:  Solving for k, Initial residual = 2.55178e-07, Final residual = 1.67172e-08, No Iterations 6
ExecutionTime = 6.22 s  ClockTime = 6 s

scalarTransport execute: age
smoothSolver:  Solving for age, Initial residual = 0.000339183, Final residual = 3.12068e-05, No Iterations 15

Time = 487

smoothSolver:  Solving for Ux, Initial residual = 6.85102e-07, Final residual = 6.14327e-08, No Iterations 5
smoothSolver:  Solving for Uy, Initial residual = 4.99466e-07, Final residual = 4.41608e-08, No Iterations 5
GAMG:  Solving for p, Initial residual = 1.99689e-06, Final residual = 1.03296e-07, No Iterations 2
time step continuity errors : sum local = 2.23945e-07, global = 5.26799e-09, cumulative = 0.0214153
smoothSolver:  Solving for omega, Initial residual = 8.06842e-08, Final residual = 8.03783e-09, No Iterations 4
smoothSolver:  Solving for k, Initial residual = 2.49816e-07, Final residual = 1.64658e-08, No Iterations 6
ExecutionTime = 6.23 s  ClockTime = 6 s

scalarTransport execute: age
smoothSolver:  Solving for age, Initial residual = 0.000338364, Final residual = 3.11318e-05, No Iterations 15

Time = 488

smoothSolver:  Solving for Ux, Initial residual = 6.52376e-07, Final residual = 5.84007e-08, No Iterations 5
smoothSolver:  Solving for Uy, Initial residual = 4.77957e-07, Final residual = 4.22327e-08, No Iterations 5
GAMG:  Solving for p, Initial residual = 1.91338e-06, Final residual = 9.88303e-08, No Iterations 2
time step continuity errors : sum local = 2.14263e-07, global = 5.61561e-09, cumulative = 0.0214153
smoothSolver:  Solving for omega, Initial residual = 7.72679e-08, Final residual = 7.73211e-09, No Iterations 4
smoothSolver:  Solving for k, Initial residual = 2.44721e-07, Final residual = 1.62254e-08, No Iterations 6
ExecutionTime = 6.24 s  ClockTime = 6 s

scalarTransport execute: age
smoothSolver:  Solving for age, Initial residual = 0.00033755, Final residual = 3.10573e-05, No Iterations 15

Time = 489

smoothSolver:  Solving for Ux, Initial residual = 6.20471e-07, Final residual = 5.54431e-08, No Iterations 5
smoothSolver:  Solving for Uy, Initial residual = 4.57643e-07, Final residual = 4.04142e-08, No Iterations 5
GAMG:  Solving for p, Initial residual = 1.83306e-06, Final residual = 9.36199e-08, No Iterations 2
time step continuity errors : sum local = 2.02967e-07, global = 3.96547e-09, cumulative = 0.0214153
smoothSolver:  Solving for omega, Initial residual = 7.47951e-08, Final residual = 7.43955e-09, No Iterations 4
smoothSolver:  Solving for k, Initial residual = 2.4015e-07, Final residual = 1.59988e-08, No Iterations 6
ExecutionTime = 6.25 s  ClockTime = 6 s

scalarTransport execute: age
smoothSolver:  Solving for age, Initial residual = 0.000336738, Final residual = 3.0983e-05, No Iterations 15

Time = 490

smoothSolver:  Solving for Ux, Initial residual = 5.88867e-07, Final residual = 5.24819e-08, No Iterations 5
smoothSolver:  Solving for Uy, Initial residual = 4.36746e-07, Final residual = 3.85277e-08, No Iterations 5
GAMG:  Solving for p, Initial residual = 1.75644e-06, Final residual = 9.04831e-08, No Iterations 2
time step continuity errors : sum local = 1.96167e-07, global = 4.17825e-09, cumulative = 0.0214153
smoothSolver:  Solving for omega, Initial residual = 7.10593e-08, Final residual = 7.14929e-09, No Iterations 4
smoothSolver:  Solving for k, Initial residual = 2.35566e-07, Final residual = 1.5778e-08, No Iterations 6
ExecutionTime = 6.27 s  ClockTime = 6 s

scalarTransport execute: age
smoothSolver:  Solving for age, Initial residual = 0.000335929, Final residual = 3.09092e-05, No Iterations 15

Time = 491

smoothSolver:  Solving for Ux, Initial residual = 5.58843e-07, Final residual = 4.97226e-08, No Iterations 5
smoothSolver:  Solving for Uy, Initial residual = 4.18259e-07, Final residual = 3.69424e-08, No Iterations 5
GAMG:  Solving for p, Initial residual = 1.68566e-06, Final residual = 8.74632e-08, No Iterations 2
time step continuity errors : sum local = 1.8962e-07, global = 4.08512e-09, cumulative = 0.0214153
smoothSolver:  Solving for omega, Initial residual = 6.84259e-08, Final residual = 6.8643e-09, No Iterations 4
smoothSolver:  Solving for k, Initial residual = 2.31363e-07, Final residual = 1.5565e-08, No Iterations 6
ExecutionTime = 6.28 s  ClockTime = 6 s

scalarTransport execute: age
smoothSolver:  Solving for age, Initial residual = 0.000335123, Final residual = 3.08359e-05, No Iterations 15

Time = 492

smoothSolver:  Solving for Ux, Initial residual = 5.30123e-07, Final residual = 4.7073e-08, No Iterations 5
smoothSolver:  Solving for Uy, Initial residual = 3.99187e-07, Final residual = 3.52274e-08, No Iterations 5
GAMG:  Solving for p, Initial residual = 1.6133e-06, Final residual = 8.39214e-08, No Iterations 2
time step continuity errors : sum local = 1.81941e-07, global = 3.93629e-09, cumulative = 0.0214153
smoothSolver:  Solving for omega, Initial residual = 6.55877e-08, Final residual = 6.58971e-09, No Iterations 4
smoothSolver:  Solving for k, Initial residual = 2.27315e-07, Final residual = 1.53585e-08, No Iterations 6
ExecutionTime = 6.29 s  ClockTime = 6 s

scalarTransport execute: age
smoothSolver:  Solving for age, Initial residual = 0.00033432, Final residual = 3.0763e-05, No Iterations 15

Time = 493

smoothSolver:  Solving for Ux, Initial residual = 5.02357e-07, Final residual = 4.45058e-08, No Iterations 5
smoothSolver:  Solving for Uy, Initial residual = 3.80547e-07, Final residual = 3.35419e-08, No Iterations 5
GAMG:  Solving for p, Initial residual = 1.54072e-06, Final residual = 8.01397e-08, No Iterations 2
time step continuity errors : sum local = 1.73743e-07, global = 3.82763e-09, cumulative = 0.0214153
smoothSolver:  Solving for omega, Initial residual = 6.28341e-08, Final residual = 6.32197e-09, No Iterations 4
smoothSolver:  Solving for k, Initial residual = 2.23455e-07, Final residual = 1.51573e-08, No Iterations 6
ExecutionTime = 6.3 s  ClockTime = 6 s

scalarTransport execute: age
smoothSolver:  Solving for age, Initial residual = 0.00033352, Final residual = 3.06905e-05, No Iterations 15

Time = 494

smoothSolver:  Solving for Ux, Initial residual = 4.75261e-07, Final residual = 4.20165e-08, No Iterations 5
smoothSolver:  Solving for Uy, Initial residual = 3.62671e-07, Final residual = 3.19339e-08, No Iterations 5
GAMG:  Solving for p, Initial residual = 1.47081e-06, Final residual = 7.64584e-08, No Iterations 2
time step continuity errors : sum local = 1.65761e-07, global = 3.67373e-09, cumulative = 0.0214153
smoothSolver:  Solving for omega, Initial residual = 6.02305e-08, Final residual = 6.06248e-09, No Iterations 4
smoothSolver:  Solving for k, Initial residual = 2.19758e-07, Final residual = 1.49602e-08, No Iterations 6
ExecutionTime = 6.32 s  ClockTime = 6 s

scalarTransport execute: age
smoothSolver:  Solving for age, Initial residual = 0.000332723, Final residual = 3.06184e-05, No Iterations 15

Time = 495

smoothSolver:  Solving for Ux, Initial residual = 4.4916e-07, Final residual = 3.96071e-08, No Iterations 5
smoothSolver:  Solving for Uy, Initial residual = 3.45496e-07, Final residual = 3.03904e-08, No Iterations 5
GAMG:  Solving for p, Initial residual = 1.40468e-06, Final residual = 7.30035e-08, No Iterations 2
time step continuity errors : sum local = 1.58271e-07, global = 3.531e-09, cumulative = 0.0214153
smoothSolver:  Solving for omega, Initial residual = 5.76178e-08, Final residual = 9.76894e-09, No Iterations 3
smoothSolver:  Solving for k, Initial residual = 2.16346e-07, Final residual = 1.4773e-08, No Iterations 6
ExecutionTime = 6.33 s  ClockTime = 6 s

scalarTransport execute: age
smoothSolver:  Solving for age, Initial residual = 0.000331929, Final residual = 3.05467e-05, No Iterations 15

Time = 496

smoothSolver:  Solving for Ux, Initial residual = 4.23452e-07, Final residual = 3.72297e-08, No Iterations 5
smoothSolver:  Solving for Uy, Initial residual = 3.28901e-07, Final residual = 2.89103e-08, No Iterations 5
GAMG:  Solving for p, Initial residual = 1.34171e-06, Final residual = 6.97615e-08, No Iterations 2
time step continuity errors : sum local = 1.51243e-07, global = 3.36669e-09, cumulative = 0.0214153
smoothSolver:  Solving for omega, Initial residual = 5.61905e-08, Final residual = 9.56497e-09, No Iterations 3
smoothSolver:  Solving for k, Initial residual = 2.1307e-07, Final residual = 1.45914e-08, No Iterations 6
ExecutionTime = 6.34 s  ClockTime = 6 s

scalarTransport execute: age
smoothSolver:  Solving for age, Initial residual = 0.000331139, Final residual = 3.04753e-05, No Iterations 15

Time = 497

smoothSolver:  Solving for Ux, Initial residual = 3.98728e-07, Final residual = 3.49458e-08, No Iterations 5
smoothSolver:  Solving for Uy, Initial residual = 3.12649e-07, Final residual = 2.74532e-08, No Iterations 5
GAMG:  Solving for p, Initial residual = 1.28094e-06, Final residual = 6.66435e-08, No Iterations 2
time step continuity errors : sum local = 1.44483e-07, global = 3.18277e-09, cumulative = 0.0214153
smoothSolver:  Solving for omega, Initial residual = 5.45096e-08, Final residual = 9.31657e-09, No Iterations 3
smoothSolver:  Solving for k, Initial residual = 2.09833e-07, Final residual = 1.44101e-08, No Iterations 6
ExecutionTime = 6.35 s  ClockTime = 6 s

scalarTransport execute: age
smoothSolver:  Solving for age, Initial residual = 0.000330352, Final residual = 3.04042e-05, No Iterations 15

Time = 498

smoothSolver:  Solving for Ux, Initial residual = 3.74956e-07, Final residual = 3.27494e-08, No Iterations 5
smoothSolver:  Solving for Uy, Initial residual = 2.9681e-07, Final residual = 2.60331e-08, No Iterations 5
GAMG:  Solving for p, Initial residual = 1.2217e-06, Final residual = 6.36222e-08, No Iterations 2
time step continuity errors : sum local = 1.37933e-07, global = 2.95784e-09, cumulative = 0.0214153
smoothSolver:  Solving for omega, Initial residual = 5.27069e-08, Final residual = 9.04141e-09, No Iterations 3
smoothSolver:  Solving for k, Initial residual = 2.06658e-07, Final residual = 1.42295e-08, No Iterations 6
ExecutionTime = 6.37 s  ClockTime = 6 s

scalarTransport execute: age
smoothSolver:  Solving for age, Initial residual = 0.000329569, Final residual = 3.03334e-05, No Iterations 15

Time = 499

smoothSolver:  Solving for Ux, Initial residual = 3.52156e-07, Final residual = 3.06403e-08, No Iterations 5
smoothSolver:  Solving for Uy, Initial residual = 2.81518e-07, Final residual = 2.46605e-08, No Iterations 5
GAMG:  Solving for p, Initial residual = 1.1646e-06, Final residual = 6.07042e-08, No Iterations 2
time step continuity errors : sum local = 1.31607e-07, global = 2.68911e-09, cumulative = 0.0214153
smoothSolver:  Solving for omega, Initial residual = 5.08503e-08, Final residual = 8.74896e-09, No Iterations 3
smoothSolver:  Solving for k, Initial residual = 2.03582e-07, Final residual = 1.40499e-08, No Iterations 6
ExecutionTime = 6.38 s  ClockTime = 6 s

scalarTransport execute: age
smoothSolver:  Solving for age, Initial residual = 0.00032879, Final residual = 3.02629e-05, No Iterations 15

Time = 500

smoothSolver:  Solving for Ux, Initial residual = 3.30368e-07, Final residual = 2.86258e-08, No Iterations 5
smoothSolver:  Solving for Uy, Initial residual = 2.66793e-07, Final residual = 2.33384e-08, No Iterations 5
GAMG:  Solving for p, Initial residual = 1.10992e-06, Final residual = 5.78996e-08, No Iterations 2
time step continuity errors : sum local = 1.25526e-07, global = 2.36904e-09, cumulative = 0.0214153
smoothSolver:  Solving for omega, Initial residual = 4.89566e-08, Final residual = 8.44529e-09, No Iterations 3
smoothSolver:  Solving for k, Initial residual = 2.00604e-07, Final residual = 1.38715e-08, No Iterations 6
ExecutionTime = 6.39 s  ClockTime = 6 s

scalarTransport execute: age
smoothSolver:  Solving for age, Initial residual = 0.000328014, Final residual = 3.01927e-05, No Iterations 15

Time = 501

smoothSolver:  Solving for Ux, Initial residual = 3.09676e-07, Final residual = 2.6729e-08, No Iterations 5
smoothSolver:  Solving for Uy, Initial residual = 2.52584e-07, Final residual = 2.20673e-08, No Iterations 5
GAMG:  Solving for p, Initial residual = 1.05794e-06, Final residual = 5.52141e-08, No Iterations 2
time step continuity errors : sum local = 1.19704e-07, global = 1.99829e-09, cumulative = 0.0214153
smoothSolver:  Solving for omega, Initial residual = 4.70525e-08, Final residual = 8.13532e-09, No Iterations 3
smoothSolver:  Solving for k, Initial residual = 1.97773e-07, Final residual = 1.36946e-08, No Iterations 6
ExecutionTime = 6.4 s  ClockTime = 6 s

scalarTransport execute: age
smoothSolver:  Solving for age, Initial residual = 0.000327243, Final residual = 3.01228e-05, No Iterations 15

Time = 502

smoothSolver:  Solving for Ux, Initial residual = 2.90202e-07, Final residual = 2.4948e-08, No Iterations 5
smoothSolver:  Solving for Uy, Initial residual = 2.38877e-07, Final residual = 2.08448e-08, No Iterations 5
GAMG:  Solving for p, Initial residual = 1.00793e-06, Final residual = 5.26385e-08, No Iterations 2
time step continuity errors : sum local = 1.1412e-07, global = 1.57659e-09, cumulative = 0.0214153
smoothSolver:  Solving for omega, Initial residual = 4.51655e-08, Final residual = 7.82248e-09, No Iterations 3
smoothSolver:  Solving for k, Initial residual = 1.95063e-07, Final residual = 1.3519e-08, No Iterations 6
ExecutionTime = 6.41 s  ClockTime = 6 s

scalarTransport execute: age
smoothSolver:  Solving for age, Initial residual = 0.000326475, Final residual = 3.00532e-05, No Iterations 15

Time = 503

smoothSolver:  Solving for Ux, Initial residual = 2.71843e-07, Final residual = 2.32723e-08, No Iterations 5
smoothSolver:  Solving for Uy, Initial residual = 2.25699e-07, Final residual = 1.96701e-08, No Iterations 5
GAMG:  Solving for p, Initial residual = 9.59758e-07, Final residual = 5.01673e-08, No Iterations 2
time step continuity errors : sum local = 1.08763e-07, global = 1.10775e-09, cumulative = 0.0214153
smoothSolver:  Solving for omega, Initial residual = 4.33018e-08, Final residual = 7.50918e-09, No Iterations 3
smoothSolver:  Solving for k, Initial residual = 1.92455e-07, Final residual = 1.33441e-08, No Iterations 6
ExecutionTime = 6.43 s  ClockTime = 6 s


SIMPLE solution converged in 503 iterations

scalarTransport execute: age
smoothSolver:  Solving for age, Initial residual = 0.00032571, Final residual = 2.99839e-05, No Iterations 15

End

