/*---------------------------------------------------------------------------*\
| =========                 |                                                 |
| \\      /  F ield         | OpenFOAM: The Open Source CFD Toolbox           |
|  \\    /   O peration     | Version:  v2012                                 |
|   \\  /    A nd           | Website:  www.openfoam.com                      |
|    \\/     M anipulation  |                                                 |
\*---------------------------------------------------------------------------*/
Build  : _7bdb509494-20201222 OPENFOAM=2012
Arch   : "LSB;label=32;scalar=64"
Exec   : simpleFoam
Date   : Feb 24 2023
Time   : 02:02:46
Host   : johnsDesktop
PID    : 21732
I/O    : uncollated
Case   : /home/john/of_runs/cases/dbl_0_58_29_8
nProcs : 1
trapFpe: Floating point exception trapping enabled (FOAM_SIGFPE).
fileModificationChecking : Monitoring run-time modified files using timeStampMaster (fileModificationSkew 5, maxFileModificationPolls 20)
allowSystemOperations : Allowing user-supplied system call operations

// * * * * * * * * * * * * * * * * * * * * * * * * * * * * * * * * * * * * * //
Create time

Create mesh for time = 0


SIMPLE: convergence criteria
    field p	 tolerance 1e-06
    field U	 tolerance 1e-06
    field "(k|epsilon|omega|f|v2|age)"	 tolerance 1e-05

Reading field p

Reading field U

Reading/calculating face flux field phi

Selecting incompressible transport model Newtonian
Selecting turbulence model type RAS
Selecting RAS turbulence model kOmegaSST
Selecting patchDistMethod meshWave
RAS
{
    RASModel        kOmegaSST;
    turbulence      on;
    printCoeffs     on;
    alphaK1         0.85;
    alphaK2         1;
    alphaOmega1     0.5;
    alphaOmega2     0.856;
    gamma1          0.555556;
    gamma2          0.44;
    beta1           0.075;
    beta2           0.0828;
    betaStar        0.09;
    a1              0.31;
    b1              1;
    c1              10;
    F3              false;
    decayControl    false;
    kInf            0;
    omegaInf        0;
}

No MRF models present

No finite volume options present

Starting time loop

Selecting finite volume options type scalarSemiImplicitSource
    Source: unitySource
    - selecting all cells
    - selected 6502 cell(s) with volume 0.03142
Time = 1

smoothSolver:  Solving for Ux, Initial residual = 0, Final residual = 0, No Iterations 0
smoothSolver:  Solving for Uy, Initial residual = 1, Final residual = 0.0360753, No Iterations 2
GAMG:  Solving for p, Initial residual = 1, Final residual = 0.0569763, No Iterations 7
time step continuity errors : sum local = 0.00362676, global = -0.00038987, cumulative = -0.00038987
smoothSolver:  Solving for omega, Initial residual = 0.0208775, Final residual = 0.00137499, No Iterations 3
smoothSolver:  Solving for k, Initial residual = 1, Final residual = 0.0621919, No Iterations 1
ExecutionTime = 0.06 s  ClockTime = 0 s

scalarTransport execute: age
smoothSolver:  Solving for age, Initial residual = 1, Final residual = 0.0990722, No Iterations 6

Time = 2

smoothSolver:  Solving for Ux, Initial residual = 0.392905, Final residual = 0.026655, No Iterations 6
smoothSolver:  Solving for Uy, Initial residual = 0.305563, Final residual = 0.0199819, No Iterations 5
GAMG:  Solving for p, Initial residual = 0.037478, Final residual = 0.00164891, No Iterations 4
time step continuity errors : sum local = 0.0158335, global = 0.00120048, cumulative = 0.000810608
smoothSolver:  Solving for omega, Initial residual = 0.0819962, Final residual = 0.0028166, No Iterations 1
smoothSolver:  Solving for k, Initial residual = 0.150801, Final residual = 0.0146195, No Iterations 2
ExecutionTime = 0.07 s  ClockTime = 0 s

scalarTransport execute: age
smoothSolver:  Solving for age, Initial residual = 0.48828, Final residual = 0.0469165, No Iterations 7

Time = 3

smoothSolver:  Solving for Ux, Initial residual = 0.137027, Final residual = 0.00899667, No Iterations 5
smoothSolver:  Solving for Uy, Initial residual = 0.111548, Final residual = 0.00934803, No Iterations 4
GAMG:  Solving for p, Initial residual = 0.0283289, Final residual = 0.00238231, No Iterations 3
time step continuity errors : sum local = 0.0107203, global = 0.00100182, cumulative = 0.00181243
smoothSolver:  Solving for omega, Initial residual = 0.00799884, Final residual = 0.00064309, No Iterations 1
smoothSolver:  Solving for k, Initial residual = 0.0720919, Final residual = 0.00627827, No Iterations 3
ExecutionTime = 0.08 s  ClockTime = 0 s

scalarTransport execute: age
smoothSolver:  Solving for age, Initial residual = 0.248397, Final residual = 0.0237811, No Iterations 8

Time = 4

smoothSolver:  Solving for Ux, Initial residual = 0.0596926, Final residual = 0.00581366, No Iterations 4
smoothSolver:  Solving for Uy, Initial residual = 0.0556923, Final residual = 0.00421315, No Iterations 4
GAMG:  Solving for p, Initial residual = 0.0271345, Final residual = 0.00169354, No Iterations 3
time step continuity errors : sum local = 0.00543798, global = 0.000318984, cumulative = 0.00213141
smoothSolver:  Solving for omega, Initial residual = 0.00453581, Final residual = 0.000359079, No Iterations 1
smoothSolver:  Solving for k, Initial residual = 0.0464037, Final residual = 0.00335764, No Iterations 4
ExecutionTime = 0.11 s  ClockTime = 0 s

scalarTransport execute: age
smoothSolver:  Solving for age, Initial residual = 0.10669, Final residual = 0.00997275, No Iterations 9

Time = 5

smoothSolver:  Solving for Ux, Initial residual = 0.0373926, Final residual = 0.00250714, No Iterations 5
smoothSolver:  Solving for Uy, Initial residual = 0.0325844, Final residual = 0.00274333, No Iterations 4
GAMG:  Solving for p, Initial residual = 0.0248157, Final residual = 0.00148871, No Iterations 2
time step continuity errors : sum local = 0.00412111, global = 0.000521288, cumulative = 0.0026527
smoothSolver:  Solving for omega, Initial residual = 0.00163521, Final residual = 0.000150336, No Iterations 1
smoothSolver:  Solving for k, Initial residual = 0.0357578, Final residual = 0.00313908, No Iterations 4
ExecutionTime = 0.12 s  ClockTime = 0 s

scalarTransport execute: age
smoothSolver:  Solving for age, Initial residual = 0.0670218, Final residual = 0.00602587, No Iterations 10

Time = 6

smoothSolver:  Solving for Ux, Initial residual = 0.0292762, Final residual = 0.00220006, No Iterations 5
smoothSolver:  Solving for Uy, Initial residual = 0.0236239, Final residual = 0.00154902, No Iterations 5
GAMG:  Solving for p, Initial residual = 0.0195126, Final residual = 0.00162562, No Iterations 2
time step continuity errors : sum local = 0.00444297, global = 0.000530026, cumulative = 0.00318272
smoothSolver:  Solving for omega, Initial residual = 0.000788227, Final residual = 3.64147e-05, No Iterations 2
smoothSolver:  Solving for k, Initial residual = 0.0296363, Final residual = 0.00295661, No Iterations 4
ExecutionTime = 0.13 s  ClockTime = 0 s

scalarTransport execute: age
smoothSolver:  Solving for age, Initial residual = 0.051869, Final residual = 0.00484167, No Iterations 10

Time = 7

smoothSolver:  Solving for Ux, Initial residual = 0.024636, Final residual = 0.00192962, No Iterations 5
smoothSolver:  Solving for Uy, Initial residual = 0.0202214, Final residual = 0.00139456, No Iterations 5
GAMG:  Solving for p, Initial residual = 0.0160903, Final residual = 0.00113477, No Iterations 2
time step continuity errors : sum local = 0.00303166, global = 0.000398307, cumulative = 0.00358103
smoothSolver:  Solving for omega, Initial residual = 0.00038263, Final residual = 2.18195e-05, No Iterations 2
smoothSolver:  Solving for k, Initial residual = 0.0258905, Final residual = 0.00165215, No Iterations 5
ExecutionTime = 0.15 s  ClockTime = 1 s

scalarTransport execute: age
smoothSolver:  Solving for age, Initial residual = 0.0429298, Final residual = 0.00411929, No Iterations 10

Time = 8

smoothSolver:  Solving for Ux, Initial residual = 0.0225401, Final residual = 0.00182078, No Iterations 5
smoothSolver:  Solving for Uy, Initial residual = 0.0175839, Final residual = 0.00134022, No Iterations 5
GAMG:  Solving for p, Initial residual = 0.0137924, Final residual = 0.000945802, No Iterations 2
time step continuity errors : sum local = 0.00250068, global = 0.000321795, cumulative = 0.00390283
smoothSolver:  Solving for omega, Initial residual = 0.000218453, Final residual = 1.71422e-05, No Iterations 2
smoothSolver:  Solving for k, Initial residual = 0.0232965, Final residual = 0.00158055, No Iterations 5
ExecutionTime = 0.16 s  ClockTime = 1 s

scalarTransport execute: age
smoothSolver:  Solving for age, Initial residual = 0.0361723, Final residual = 0.00310731, No Iterations 11

Time = 9

smoothSolver:  Solving for Ux, Initial residual = 0.0207965, Final residual = 0.00178508, No Iterations 5
smoothSolver:  Solving for Uy, Initial residual = 0.0160621, Final residual = 0.00128735, No Iterations 5
GAMG:  Solving for p, Initial residual = 0.0125577, Final residual = 0.000896207, No Iterations 2
time step continuity errors : sum local = 0.00236632, global = 0.000267667, cumulative = 0.00417049
smoothSolver:  Solving for omega, Initial residual = 0.000126995, Final residual = 1.24343e-05, No Iterations 2
smoothSolver:  Solving for k, Initial residual = 0.021361, Final residual = 0.00151462, No Iterations 5
ExecutionTime = 0.17 s  ClockTime = 1 s

scalarTransport execute: age
smoothSolver:  Solving for age, Initial residual = 0.0307898, Final residual = 0.00274353, No Iterations 11

Time = 10

smoothSolver:  Solving for Ux, Initial residual = 0.0194146, Final residual = 0.00172364, No Iterations 5
smoothSolver:  Solving for Uy, Initial residual = 0.0149739, Final residual = 0.00123746, No Iterations 5
GAMG:  Solving for p, Initial residual = 0.0114346, Final residual = 0.000818185, No Iterations 2
time step continuity errors : sum local = 0.00216002, global = 0.000217603, cumulative = 0.0043881
smoothSolver:  Solving for omega, Initial residual = 8.46522e-05, Final residual = 5.81138e-06, No Iterations 3
smoothSolver:  Solving for k, Initial residual = 0.0197273, Final residual = 0.00144842, No Iterations 5
ExecutionTime = 0.18 s  ClockTime = 1 s

scalarTransport execute: age
smoothSolver:  Solving for age, Initial residual = 0.0269496, Final residual = 0.00248421, No Iterations 11

Time = 11

smoothSolver:  Solving for Ux, Initial residual = 0.0178818, Final residual = 0.00161581, No Iterations 5
smoothSolver:  Solving for Uy, Initial residual = 0.014049, Final residual = 0.00118379, No Iterations 5
GAMG:  Solving for p, Initial residual = 0.0107427, Final residual = 0.000764797, No Iterations 2
time step continuity errors : sum local = 0.00201936, global = 0.000177282, cumulative = 0.00456538
smoothSolver:  Solving for omega, Initial residual = 5.70362e-05, Final residual = 4.45932e-06, No Iterations 3
smoothSolver:  Solving for k, Initial residual = 0.0184285, Final residual = 0.00138821, No Iterations 5
ExecutionTime = 0.2 s  ClockTime = 1 s

scalarTransport execute: age
smoothSolver:  Solving for age, Initial residual = 0.0243119, Final residual = 0.00231086, No Iterations 11

Time = 12

smoothSolver:  Solving for Ux, Initial residual = 0.0165255, Final residual = 0.00149802, No Iterations 5
smoothSolver:  Solving for Uy, Initial residual = 0.0133084, Final residual = 0.00112628, No Iterations 5
GAMG:  Solving for p, Initial residual = 0.0101477, Final residual = 0.000729769, No Iterations 2
time step continuity errors : sum local = 0.00192778, global = 0.00015241, cumulative = 0.00471779
smoothSolver:  Solving for omega, Initial residual = 4.77113e-05, Final residual = 3.63641e-06, No Iterations 3
smoothSolver:  Solving for k, Initial residual = 0.0173799, Final residual = 0.0013345, No Iterations 5
ExecutionTime = 0.21 s  ClockTime = 1 s

scalarTransport execute: age
smoothSolver:  Solving for age, Initial residual = 0.0219407, Final residual = 0.00217275, No Iterations 11

Time = 13

smoothSolver:  Solving for Ux, Initial residual = 0.0127599, Final residual = 1.22912e-05, No Iterations 1
smoothSolver:  Solving for Uy, Initial residual = 0.622532, Final residual = 0.00268494, No Iterations 1
GAMG:  Solving for p, Initial residual = 0.00607837, Final residual = 0.000403982, No Iterations 2
time step continuity errors : sum local = 0.00106777, global = 0.000110515, cumulative = 0.0048283
smoothSolver:  Solving for omega, Initial residual = 4.40512e-06, Final residual = 3.38589e-07, No Iterations 3
smoothSolver:  Solving for k, Initial residual = 0.0164966, Final residual = 0.00128598, No Iterations 5
ExecutionTime = 0.22 s  ClockTime = 1 s

scalarTransport execute: age
smoothSolver:  Solving for age, Initial residual = 0.0194148, Final residual = 0.00173315, No Iterations 12

Time = 14

smoothSolver:  Solving for Ux, Initial residual = 0.0150229, Final residual = 0.00141236, No Iterations 5
smoothSolver:  Solving for Uy, Initial residual = 0.0118012, Final residual = 0.00104655, No Iterations 5
GAMG:  Solving for p, Initial residual = 0.00915258, Final residual = 0.000765867, No Iterations 2
time step continuity errors : sum local = 0.0020231, global = 0.00010046, cumulative = 0.00492876
smoothSolver:  Solving for omega, Initial residual = 4.24985e-05, Final residual = 2.48495e-06, No Iterations 3
smoothSolver:  Solving for k, Initial residual = 0.015719, Final residual = 0.00123777, No Iterations 5
ExecutionTime = 0.23 s  ClockTime = 1 s

scalarTransport execute: age
smoothSolver:  Solving for age, Initial residual = 0.0171732, Final residual = 0.00158207, No Iterations 12

Time = 15

smoothSolver:  Solving for Ux, Initial residual = 0.0140553, Final residual = 0.00130643, No Iterations 5
smoothSolver:  Solving for Uy, Initial residual = 0.0111881, Final residual = 0.000984419, No Iterations 5
GAMG:  Solving for p, Initial residual = 0.00908003, Final residual = 0.000726626, No Iterations 2
time step continuity errors : sum local = 0.00192267, global = 0.000128739, cumulative = 0.0050575
smoothSolver:  Solving for omega, Initial residual = 4.42374e-05, Final residual = 3.88735e-06, No Iterations 2
smoothSolver:  Solving for k, Initial residual = 0.0150843, Final residual = 0.0011946, No Iterations 5
ExecutionTime = 0.24 s  ClockTime = 1 s

scalarTransport execute: age
smoothSolver:  Solving for age, Initial residual = 0.0155224, Final residual = 0.00145006, No Iterations 12

Time = 16

smoothSolver:  Solving for Ux, Initial residual = 0.0132271, Final residual = 0.00122858, No Iterations 5
smoothSolver:  Solving for Uy, Initial residual = 0.0104312, Final residual = 0.000913753, No Iterations 5
GAMG:  Solving for p, Initial residual = 0.00839924, Final residual = 0.000624993, No Iterations 2
time step continuity errors : sum local = 0.0016547, global = 0.000145146, cumulative = 0.00520265
smoothSolver:  Solving for omega, Initial residual = 4.74752e-05, Final residual = 3.73972e-06, No Iterations 2
smoothSolver:  Solving for k, Initial residual = 0.014486, Final residual = 0.00114914, No Iterations 5
ExecutionTime = 0.26 s  ClockTime = 1 s

scalarTransport execute: age
smoothSolver:  Solving for age, Initial residual = 0.0143567, Final residual = 0.0013404, No Iterations 12

Time = 17

smoothSolver:  Solving for Ux, Initial residual = 0.0123709, Final residual = 0.00112122, No Iterations 5
smoothSolver:  Solving for Uy, Initial residual = 0.009662, Final residual = 0.000850666, No Iterations 5
GAMG:  Solving for p, Initial residual = 0.00777821, Final residual = 0.000576759, No Iterations 2
time step continuity errors : sum local = 0.00152561, global = 0.000156652, cumulative = 0.0053593
smoothSolver:  Solving for omega, Initial residual = 3.51065e-05, Final residual = 3.3465e-06, No Iterations 2
smoothSolver:  Solving for k, Initial residual = 0.013876, Final residual = 0.00110108, No Iterations 5
ExecutionTime = 0.27 s  ClockTime = 1 s

scalarTransport execute: age
smoothSolver:  Solving for age, Initial residual = 0.0134333, Final residual = 0.00124602, No Iterations 12

Time = 18

smoothSolver:  Solving for Ux, Initial residual = 0.0115209, Final residual = 0.00106136, No Iterations 5
smoothSolver:  Solving for Uy, Initial residual = 0.00893978, Final residual = 0.000792323, No Iterations 5
GAMG:  Solving for p, Initial residual = 0.00736053, Final residual = 0.000549582, No Iterations 2
time step continuity errors : sum local = 0.00145143, global = 0.000170217, cumulative = 0.00552952
smoothSolver:  Solving for omega, Initial residual = 6.4526e-05, Final residual = 3.40943e-06, No Iterations 2
smoothSolver:  Solving for k, Initial residual = 0.0132296, Final residual = 0.00105009, No Iterations 5
ExecutionTime = 0.28 s  ClockTime = 1 s

scalarTransport execute: age
smoothSolver:  Solving for age, Initial residual = 0.0127325, Final residual = 0.00115964, No Iterations 12

Time = 19

smoothSolver:  Solving for Ux, Initial residual = 0.0113568, Final residual = 0.000981506, No Iterations 5
smoothSolver:  Solving for Uy, Initial residual = 0.00866427, Final residual = 0.000734465, No Iterations 5
GAMG:  Solving for p, Initial residual = 0.00698881, Final residual = 0.000517633, No Iterations 2
time step continuity errors : sum local = 0.0013644, global = 0.000183043, cumulative = 0.00571256
smoothSolver:  Solving for omega, Initial residual = 7.66993e-05, Final residual = 3.51409e-06, No Iterations 2
smoothSolver:  Solving for k, Initial residual = 0.0125616, Final residual = 0.00099279, No Iterations 5
ExecutionTime = 0.29 s  ClockTime = 1 s

scalarTransport execute: age
smoothSolver:  Solving for age, Initial residual = 0.012043, Final residual = 0.00108102, No Iterations 12

Time = 20

smoothSolver:  Solving for Ux, Initial residual = 0.0101325, Final residual = 0.00090272, No Iterations 5
smoothSolver:  Solving for Uy, Initial residual = 0.00776049, Final residual = 0.000682398, No Iterations 5
GAMG:  Solving for p, Initial residual = 0.00655243, Final residual = 0.000486261, No Iterations 2
time step continuity errors : sum local = 0.00127851, global = 0.000188442, cumulative = 0.005901
smoothSolver:  Solving for omega, Initial residual = 6.55555e-05, Final residual = 3.01872e-06, No Iterations 2
smoothSolver:  Solving for k, Initial residual = 0.0117572, Final residual = 0.000929501, No Iterations 5
ExecutionTime = 0.31 s  ClockTime = 1 s

scalarTransport execute: age
smoothSolver:  Solving for age, Initial residual = 0.0112649, Final residual = 0.00100074, No Iterations 12

Time = 21

smoothSolver:  Solving for Ux, Initial residual = 0.00924044, Final residual = 0.00083502, No Iterations 5
smoothSolver:  Solving for Uy, Initial residual = 0.00717148, Final residual = 0.000630279, No Iterations 5
GAMG:  Solving for p, Initial residual = 0.00602921, Final residual = 0.000457024, No Iterations 2
time step continuity errors : sum local = 0.00119798, global = 0.000186714, cumulative = 0.00608772
smoothSolver:  Solving for omega, Initial residual = 5.57886e-05, Final residual = 2.7688e-06, No Iterations 2
smoothSolver:  Solving for k, Initial residual = 0.0109378, Final residual = 0.000865791, No Iterations 5
ExecutionTime = 0.32 s  ClockTime = 1 s

scalarTransport execute: age
smoothSolver:  Solving for age, Initial residual = 0.0102493, Final residual = 0.000928626, No Iterations 12

Time = 22

smoothSolver:  Solving for Ux, Initial residual = 0.00837442, Final residual = 0.000735355, No Iterations 5
smoothSolver:  Solving for Uy, Initial residual = 0.0074333, Final residual = 0.000581629, No Iterations 5
GAMG:  Solving for p, Initial residual = 0.00566326, Final residual = 0.000430468, No Iterations 2
time step continuity errors : sum local = 0.00112449, global = 0.00017958, cumulative = 0.0062673
smoothSolver:  Solving for omega, Initial residual = 4.3971e-05, Final residual = 2.44552e-06, No Iterations 2
smoothSolver:  Solving for k, Initial residual = 0.0101602, Final residual = 0.000803347, No Iterations 5
ExecutionTime = 0.32 s  ClockTime = 1 s

scalarTransport execute: age
smoothSolver:  Solving for age, Initial residual = 0.00947217, Final residual = 0.000856684, No Iterations 12

Time = 23

smoothSolver:  Solving for Ux, Initial residual = 0.00801939, Final residual = 0.000691329, No Iterations 5
smoothSolver:  Solving for Uy, Initial residual = 0.00649234, Final residual = 0.000542113, No Iterations 5
GAMG:  Solving for p, Initial residual = 0.00521268, Final residual = 0.000410873, No Iterations 2
time step continuity errors : sum local = 0.00106944, global = 0.000166354, cumulative = 0.00643365
smoothSolver:  Solving for omega, Initial residual = 5.61496e-05, Final residual = 2.41165e-06, No Iterations 2
smoothSolver:  Solving for k, Initial residual = 0.00938952, Final residual = 0.000743091, No Iterations 5
ExecutionTime = 0.33 s  ClockTime = 1 s

scalarTransport execute: age
smoothSolver:  Solving for age, Initial residual = 0.00862374, Final residual = 0.00078012, No Iterations 12

Time = 24

smoothSolver:  Solving for Ux, Initial residual = 0.0073705, Final residual = 0.00066334, No Iterations 5
smoothSolver:  Solving for Uy, Initial residual = 0.00564711, Final residual = 0.00050427, No Iterations 5
GAMG:  Solving for p, Initial residual = 0.0047514, Final residual = 0.000410451, No Iterations 2
time step continuity errors : sum local = 0.0010644, global = 0.000155953, cumulative = 0.0065896
smoothSolver:  Solving for omega, Initial residual = 5.29085e-05, Final residual = 2.38626e-06, No Iterations 2
smoothSolver:  Solving for k, Initial residual = 0.00864544, Final residual = 0.000685357, No Iterations 5
ExecutionTime = 0.36 s  ClockTime = 1 s

scalarTransport execute: age
smoothSolver:  Solving for age, Initial residual = 0.00785455, Final residual = 0.000707756, No Iterations 12

Time = 25

smoothSolver:  Solving for Ux, Initial residual = 0.00693829, Final residual = 0.000598581, No Iterations 5
smoothSolver:  Solving for Uy, Initial residual = 0.00517717, Final residual = 0.000469272, No Iterations 5
GAMG:  Solving for p, Initial residual = 0.00441885, Final residual = 0.000400642, No Iterations 2
time step continuity errors : sum local = 0.00103565, global = 0.000146061, cumulative = 0.00673566
smoothSolver:  Solving for omega, Initial residual = 5.56714e-05, Final residual = 2.18204e-06, No Iterations 2
smoothSolver:  Solving for k, Initial residual = 0.00793711, Final residual = 0.000630658, No Iterations 5
ExecutionTime = 0.37 s  ClockTime = 1 s

scalarTransport execute: age
smoothSolver:  Solving for age, Initial residual = 0.00726635, Final residual = 0.00064694, No Iterations 12

Time = 26

smoothSolver:  Solving for Ux, Initial residual = 0.00625232, Final residual = 0.000569025, No Iterations 5
smoothSolver:  Solving for Uy, Initial residual = 0.00478125, Final residual = 0.000439137, No Iterations 5
GAMG:  Solving for p, Initial residual = 0.00404068, Final residual = 0.000380494, No Iterations 2
time step continuity errors : sum local = 0.00098047, global = 0.000135397, cumulative = 0.00687106
smoothSolver:  Solving for omega, Initial residual = 5.41215e-05, Final residual = 2.05221e-06, No Iterations 2
smoothSolver:  Solving for k, Initial residual = 0.00726659, Final residual = 0.000579217, No Iterations 5
ExecutionTime = 0.38 s  ClockTime = 1 s

scalarTransport execute: age
smoothSolver:  Solving for age, Initial residual = 0.00677445, Final residual = 0.000592438, No Iterations 12

Time = 27

smoothSolver:  Solving for Ux, Initial residual = 0.0133168, Final residual = 3.29606e-06, No Iterations 1
smoothSolver:  Solving for Uy, Initial residual = 0.489315, Final residual = 0.00132466, No Iterations 1
GAMG:  Solving for p, Initial residual = 0.00228335, Final residual = 0.000212983, No Iterations 2
time step continuity errors : sum local = 0.000547354, global = 7.13286e-05, cumulative = 0.00694239
smoothSolver:  Solving for omega, Initial residual = 3.75395e-06, Final residual = 1.34945e-07, No Iterations 2
smoothSolver:  Solving for k, Initial residual = 0.00661833, Final residual = 0.000532298, No Iterations 5
ExecutionTime = 0.38 s  ClockTime = 1 s

scalarTransport execute: age
smoothSolver:  Solving for age, Initial residual = 0.00610066, Final residual = 0.000545565, No Iterations 12

Time = 28

smoothSolver:  Solving for Ux, Initial residual = 0.00384308, Final residual = 0.000283089, No Iterations 5
smoothSolver:  Solving for Uy, Initial residual = 0.0153794, Final residual = 0.000990099, No Iterations 3
GAMG:  Solving for p, Initial residual = 0.00329913, Final residual = 0.000134456, No Iterations 3
time step continuity errors : sum local = 0.00034382, global = 4.23874e-05, cumulative = 0.00698478
smoothSolver:  Solving for omega, Initial residual = 4.84338e-05, Final residual = 1.76676e-06, No Iterations 2
smoothSolver:  Solving for k, Initial residual = 0.00606969, Final residual = 0.000488065, No Iterations 5
ExecutionTime = 0.39 s  ClockTime = 1 s

scalarTransport execute: age
smoothSolver:  Solving for age, Initial residual = 0.005666, Final residual = 0.000566537, No Iterations 11

Time = 29

smoothSolver:  Solving for Ux, Initial residual = 0.00512007, Final residual = 0.000454447, No Iterations 5
smoothSolver:  Solving for Uy, Initial residual = 0.00430122, Final residual = 0.000404896, No Iterations 5
GAMG:  Solving for p, Initial residual = 0.0033581, Final residual = 0.000150493, No Iterations 3
time step continuity errors : sum local = 0.000384051, global = 3.69601e-05, cumulative = 0.00702174
smoothSolver:  Solving for omega, Initial residual = 4.61418e-05, Final residual = 1.72984e-06, No Iterations 2
smoothSolver:  Solving for k, Initial residual = 0.00553664, Final residual = 0.000447335, No Iterations 5
ExecutionTime = 0.42 s  ClockTime = 1 s

scalarTransport execute: age
smoothSolver:  Solving for age, Initial residual = 0.00544928, Final residual = 0.000529374, No Iterations 11

Time = 30

smoothSolver:  Solving for Ux, Initial residual = 0.00468842, Final residual = 0.000442712, No Iterations 5
smoothSolver:  Solving for Uy, Initial residual = 0.00393313, Final residual = 0.000373929, No Iterations 5
GAMG:  Solving for p, Initial residual = 0.002942, Final residual = 0.000149435, No Iterations 3
time step continuity errors : sum local = 0.00038078, global = 4.30339e-05, cumulative = 0.00706477
smoothSolver:  Solving for omega, Initial residual = 4.40148e-05, Final residual = 1.81743e-06, No Iterations 2
smoothSolver:  Solving for k, Initial residual = 0.00504853, Final residual = 0.000409817, No Iterations 5
ExecutionTime = 0.43 s  ClockTime = 1 s

scalarTransport execute: age
smoothSolver:  Solving for age, Initial residual = 0.00525154, Final residual = 0.000506062, No Iterations 11

Time = 31

smoothSolver:  Solving for Ux, Initial residual = 0.0044215, Final residual = 0.000420339, No Iterations 5
smoothSolver:  Solving for Uy, Initial residual = 0.00362864, Final residual = 0.000349682, No Iterations 5
GAMG:  Solving for p, Initial residual = 0.00265323, Final residual = 0.000121783, No Iterations 3
time step continuity errors : sum local = 0.000309858, global = 4.23856e-05, cumulative = 0.00710716
smoothSolver:  Solving for omega, Initial residual = 2.84673e-05, Final residual = 1.4321e-06, No Iterations 2
smoothSolver:  Solving for k, Initial residual = 0.00461347, Final residual = 0.000375289, No Iterations 5
ExecutionTime = 0.43 s  ClockTime = 1 s

scalarTransport execute: age
smoothSolver:  Solving for age, Initial residual = 0.00505577, Final residual = 0.000480823, No Iterations 11

Time = 32

smoothSolver:  Solving for Ux, Initial residual = 0.00414676, Final residual = 0.000398569, No Iterations 5
smoothSolver:  Solving for Uy, Initial residual = 0.00340215, Final residual = 0.000331741, No Iterations 5
GAMG:  Solving for p, Initial residual = 0.00239639, Final residual = 0.000104183, No Iterations 3
time step continuity errors : sum local = 0.000264518, global = 3.5608e-05, cumulative = 0.00714276
smoothSolver:  Solving for omega, Initial residual = 2.57728e-05, Final residual = 1.35372e-06, No Iterations 2
smoothSolver:  Solving for k, Initial residual = 0.0042066, Final residual = 0.00034362, No Iterations 5
ExecutionTime = 0.44 s  ClockTime = 1 s

scalarTransport execute: age
smoothSolver:  Solving for age, Initial residual = 0.00482767, Final residual = 0.000456478, No Iterations 11

Time = 33

smoothSolver:  Solving for Ux, Initial residual = 0.00415069, Final residual = 0.000378108, No Iterations 5
smoothSolver:  Solving for Uy, Initial residual = 0.00340798, Final residual = 0.000318164, No Iterations 5
GAMG:  Solving for p, Initial residual = 0.0023597, Final residual = 9.99948e-05, No Iterations 3
time step continuity errors : sum local = 0.000253328, global = 3.00782e-05, cumulative = 0.00717284
smoothSolver:  Solving for omega, Initial residual = 2.20372e-05, Final residual = 1.26824e-06, No Iterations 2
smoothSolver:  Solving for k, Initial residual = 0.00385727, Final residual = 0.000314575, No Iterations 5
ExecutionTime = 0.47 s  ClockTime = 1 s

scalarTransport execute: age
smoothSolver:  Solving for age, Initial residual = 0.00473471, Final residual = 0.000437581, No Iterations 11

Time = 34

smoothSolver:  Solving for Ux, Initial residual = 0.00383089, Final residual = 0.000347128, No Iterations 5
smoothSolver:  Solving for Uy, Initial residual = 0.00360628, Final residual = 0.000302985, No Iterations 5
GAMG:  Solving for p, Initial residual = 0.0021756, Final residual = 9.99672e-05, No Iterations 3
time step continuity errors : sum local = 0.00025283, global = 2.63251e-05, cumulative = 0.00719917
smoothSolver:  Solving for omega, Initial residual = 2.30086e-05, Final residual = 1.28315e-06, No Iterations 2
smoothSolver:  Solving for k, Initial residual = 0.00351679, Final residual = 0.000287862, No Iterations 5
ExecutionTime = 0.48 s  ClockTime = 1 s

scalarTransport execute: age
smoothSolver:  Solving for age, Initial residual = 0.0046068, Final residual = 0.000422905, No Iterations 11

Time = 35

smoothSolver:  Solving for Ux, Initial residual = 0.00345595, Final residual = 0.000336921, No Iterations 5
smoothSolver:  Solving for Uy, Initial residual = 0.00331224, Final residual = 0.000290662, No Iterations 5
GAMG:  Solving for p, Initial residual = 0.00195981, Final residual = 8.80602e-05, No Iterations 3
time step continuity errors : sum local = 0.000222425, global = 2.29709e-05, cumulative = 0.00722214
smoothSolver:  Solving for omega, Initial residual = 2.50526e-05, Final residual = 1.26158e-06, No Iterations 2
smoothSolver:  Solving for k, Initial residual = 0.00320775, Final residual = 0.000263291, No Iterations 5
ExecutionTime = 0.49 s  ClockTime = 1 s

scalarTransport execute: age
smoothSolver:  Solving for age, Initial residual = 0.0043651, Final residual = 0.000410563, No Iterations 11

Time = 36

smoothSolver:  Solving for Ux, Initial residual = 0.00371201, Final residual = 0.000321021, No Iterations 5
smoothSolver:  Solving for Uy, Initial residual = 0.00284662, Final residual = 0.000278443, No Iterations 5
GAMG:  Solving for p, Initial residual = 0.00186722, Final residual = 8.41228e-05, No Iterations 3
time step continuity errors : sum local = 0.0002122, global = 1.91231e-05, cumulative = 0.00724126
smoothSolver:  Solving for omega, Initial residual = 1.80268e-05, Final residual = 1.12962e-06, No Iterations 2
smoothSolver:  Solving for k, Initial residual = 0.00292692, Final residual = 0.000240649, No Iterations 5
ExecutionTime = 0.49 s  ClockTime = 1 s

scalarTransport execute: age
smoothSolver:  Solving for age, Initial residual = 0.00414986, Final residual = 0.00039803, No Iterations 11

Time = 37

smoothSolver:  Solving for Ux, Initial residual = 0.00321753, Final residual = 0.000309157, No Iterations 5
smoothSolver:  Solving for Uy, Initial residual = 0.00314077, Final residual = 0.000266361, No Iterations 5
GAMG:  Solving for p, Initial residual = 0.00170219, Final residual = 7.81367e-05, No Iterations 3
time step continuity errors : sum local = 0.00019687, global = 1.59197e-05, cumulative = 0.00725718
smoothSolver:  Solving for omega, Initial residual = 1.87298e-05, Final residual = 1.11222e-06, No Iterations 2
smoothSolver:  Solving for k, Initial residual = 0.00267499, Final residual = 0.000219741, No Iterations 5
ExecutionTime = 0.52 s  ClockTime = 1 s

scalarTransport execute: age
smoothSolver:  Solving for age, Initial residual = 0.00393859, Final residual = 0.000384147, No Iterations 11

Time = 38

smoothSolver:  Solving for Ux, Initial residual = 0.0030573, Final residual = 0.00019762, No Iterations 6
smoothSolver:  Solving for Uy, Initial residual = 0.00253143, Final residual = 0.000165386, No Iterations 6
GAMG:  Solving for p, Initial residual = 0.00156132, Final residual = 7.72789e-05, No Iterations 3
time step continuity errors : sum local = 0.000194501, global = 1.33108e-05, cumulative = 0.00727049
smoothSolver:  Solving for omega, Initial residual = 2.06463e-05, Final residual = 1.13558e-06, No Iterations 2
smoothSolver:  Solving for k, Initial residual = 0.00243912, Final residual = 0.000200395, No Iterations 5
ExecutionTime = 0.53 s  ClockTime = 1 s

scalarTransport execute: age
smoothSolver:  Solving for age, Initial residual = 0.00375784, Final residual = 0.000367441, No Iterations 11

Time = 39

smoothSolver:  Solving for Ux, Initial residual = 0.00256798, Final residual = 0.000179119, No Iterations 4
smoothSolver:  Solving for Uy, Initial residual = 0.0269646, Final residual = 0.00140395, No Iterations 1
GAMG:  Solving for p, Initial residual = 0.00154419, Final residual = 6.25818e-05, No Iterations 3
time step continuity errors : sum local = 0.000157354, global = 1.15913e-05, cumulative = 0.00728208
smoothSolver:  Solving for omega, Initial residual = 1.54578e-05, Final residual = 9.23971e-07, No Iterations 2
smoothSolver:  Solving for k, Initial residual = 0.00224416, Final residual = 0.000182626, No Iterations 5
ExecutionTime = 0.54 s  ClockTime = 1 s

scalarTransport execute: age
smoothSolver:  Solving for age, Initial residual = 0.00356255, Final residual = 0.000318681, No Iterations 12

Time = 40

smoothSolver:  Solving for Ux, Initial residual = 0.000574088, Final residual = 3.84031e-05, No Iterations 5
smoothSolver:  Solving for Uy, Initial residual = 0.076513, Final residual = 0.00146866, No Iterations 1
GAMG:  Solving for p, Initial residual = 0.0011996, Final residual = 0.000114928, No Iterations 2
time step continuity errors : sum local = 0.000288604, global = 1.09539e-05, cumulative = 0.00729304
smoothSolver:  Solving for omega, Initial residual = 1.40527e-05, Final residual = 8.52233e-07, No Iterations 2
smoothSolver:  Solving for k, Initial residual = 0.00205247, Final residual = 0.000166136, No Iterations 5
ExecutionTime = 0.55 s  ClockTime = 1 s

scalarTransport execute: age
smoothSolver:  Solving for age, Initial residual = 0.00347894, Final residual = 0.000316287, No Iterations 12

Time = 41

smoothSolver:  Solving for Ux, Initial residual = 0.00235392, Final residual = 0.000220057, No Iterations 5
smoothSolver:  Solving for Uy, Initial residual = 0.00357397, Final residual = 0.000287461, No Iterations 5
GAMG:  Solving for p, Initial residual = 0.00183571, Final residual = 0.000180897, No Iterations 2
time step continuity errors : sum local = 0.000454007, global = 1.15538e-05, cumulative = 0.00730459
smoothSolver:  Solving for omega, Initial residual = 1.40881e-05, Final residual = 9.02267e-07, No Iterations 2
smoothSolver:  Solving for k, Initial residual = 0.00187278, Final residual = 0.000150885, No Iterations 5
ExecutionTime = 0.57 s  ClockTime = 1 s

scalarTransport execute: age
smoothSolver:  Solving for age, Initial residual = 0.00340752, Final residual = 0.000329021, No Iterations 12

Time = 42

smoothSolver:  Solving for Ux, Initial residual = 0.00251287, Final residual = 0.000162491, No Iterations 6
smoothSolver:  Solving for Uy, Initial residual = 0.00250489, Final residual = 0.0002456, No Iterations 5
GAMG:  Solving for p, Initial residual = 0.00140316, Final residual = 6.59157e-05, No Iterations 3
time step continuity errors : sum local = 0.000165363, global = 1.01424e-05, cumulative = 0.00731473
smoothSolver:  Solving for omega, Initial residual = 1.29393e-05, Final residual = 8.55071e-07, No Iterations 2
smoothSolver:  Solving for k, Initial residual = 0.00170638, Final residual = 0.000136685, No Iterations 5
ExecutionTime = 0.58 s  ClockTime = 1 s

scalarTransport execute: age
smoothSolver:  Solving for age, Initial residual = 0.00365885, Final residual = 0.000327414, No Iterations 13

Time = 43

smoothSolver:  Solving for Ux, Initial residual = 0.0322628, Final residual = 0.000662179, No Iterations 1
smoothSolver:  Solving for Uy, Initial residual = 0.0513359, Final residual = 0.00123324, No Iterations 1
GAMG:  Solving for p, Initial residual = 0.000911481, Final residual = 8.71248e-05, No Iterations 2
time step continuity errors : sum local = 0.000218456, global = 9.25894e-06, cumulative = 0.00732399
smoothSolver:  Solving for omega, Initial residual = 1.70031e-05, Final residual = 7.76354e-07, No Iterations 2
smoothSolver:  Solving for k, Initial residual = 0.00164817, Final residual = 0.000123734, No Iterations 5
ExecutionTime = 0.59 s  ClockTime = 1 s

scalarTransport execute: age
smoothSolver:  Solving for age, Initial residual = 0.00371277, Final residual = 0.000344853, No Iterations 13

Time = 44

smoothSolver:  Solving for Ux, Initial residual = 0.00374924, Final residual = 0.000352889, No Iterations 4
smoothSolver:  Solving for Uy, Initial residual = 0.00260935, Final residual = 0.000215701, No Iterations 5
GAMG:  Solving for p, Initial residual = 0.00128667, Final residual = 6.33044e-05, No Iterations 3
time step continuity errors : sum local = 0.000158664, global = 5.7916e-06, cumulative = 0.00732978
smoothSolver:  Solving for omega, Initial residual = 1.8639e-05, Final residual = 8.29943e-07, No Iterations 2
smoothSolver:  Solving for k, Initial residual = 0.00148331, Final residual = 0.00011164, No Iterations 5
ExecutionTime = 0.6 s  ClockTime = 1 s

scalarTransport execute: age
smoothSolver:  Solving for age, Initial residual = 0.00412633, Final residual = 0.000403983, No Iterations 13

Time = 45

smoothSolver:  Solving for Ux, Initial residual = 0.00250863, Final residual = 0.000165132, No Iterations 6
smoothSolver:  Solving for Uy, Initial residual = 0.00203564, Final residual = 0.000203349, No Iterations 5
GAMG:  Solving for p, Initial residual = 0.00115629, Final residual = 5.93629e-05, No Iterations 3
time step continuity errors : sum local = 0.000148723, global = 4.0067e-06, cumulative = 0.00733379
smoothSolver:  Solving for omega, Initial residual = 1.56662e-05, Final residual = 8.05554e-07, No Iterations 2
smoothSolver:  Solving for k, Initial residual = 0.00131001, Final residual = 0.000100481, No Iterations 5
ExecutionTime = 0.61 s  ClockTime = 1 s

scalarTransport execute: age
smoothSolver:  Solving for age, Initial residual = 0.00419478, Final residual = 0.000381911, No Iterations 14

Time = 46

smoothSolver:  Solving for Ux, Initial residual = 0.0035687, Final residual = 0.00023332, No Iterations 5
smoothSolver:  Solving for Uy, Initial residual = 0.00304353, Final residual = 0.000200755, No Iterations 5
GAMG:  Solving for p, Initial residual = 0.00120597, Final residual = 5.41386e-05, No Iterations 3
time step continuity errors : sum local = 0.000135549, global = 3.74462e-06, cumulative = 0.00733753
smoothSolver:  Solving for omega, Initial residual = 1.45194e-05, Final residual = 7.63677e-07, No Iterations 2
smoothSolver:  Solving for k, Initial residual = 0.00137516, Final residual = 9.02664e-05, No Iterations 5
ExecutionTime = 0.63 s  ClockTime = 1 s

scalarTransport execute: age
smoothSolver:  Solving for age, Initial residual = 0.00417432, Final residual = 0.000412321, No Iterations 13

Time = 47

smoothSolver:  Solving for Ux, Initial residual = 0.00357847, Final residual = 0.000329153, No Iterations 4
smoothSolver:  Solving for Uy, Initial residual = 0.00196534, Final residual = 0.000191719, No Iterations 5
GAMG:  Solving for p, Initial residual = 0.00109118, Final residual = 4.83099e-05, No Iterations 3
time step continuity errors : sum local = 0.000120893, global = 4.63608e-06, cumulative = 0.00734217
smoothSolver:  Solving for omega, Initial residual = 1.71064e-05, Final residual = 7.78184e-07, No Iterations 2
smoothSolver:  Solving for k, Initial residual = 0.00122314, Final residual = 8.09104e-05, No Iterations 5
ExecutionTime = 0.64 s  ClockTime = 1 s

scalarTransport execute: age
smoothSolver:  Solving for age, Initial residual = 0.00403775, Final residual = 0.00038211, No Iterations 13

Time = 48

smoothSolver:  Solving for Ux, Initial residual = 0.0029114, Final residual = 0.000218707, No Iterations 5
smoothSolver:  Solving for Uy, Initial residual = 0.00201419, Final residual = 0.000182354, No Iterations 5
GAMG:  Solving for p, Initial residual = 0.00104687, Final residual = 4.86445e-05, No Iterations 3
time step continuity errors : sum local = 0.000121666, global = 6.16141e-06, cumulative = 0.00734833
smoothSolver:  Solving for omega, Initial residual = 1.5421e-05, Final residual = 6.91099e-07, No Iterations 2
smoothSolver:  Solving for k, Initial residual = 0.00102738, Final residual = 7.23368e-05, No Iterations 5
ExecutionTime = 0.65 s  ClockTime = 1 s

scalarTransport execute: age
smoothSolver:  Solving for age, Initial residual = 0.00379322, Final residual = 0.000350806, No Iterations 13

Time = 49

smoothSolver:  Solving for Ux, Initial residual = 0.00221784, Final residual = 0.000144453, No Iterations 6
smoothSolver:  Solving for Uy, Initial residual = 0.00177798, Final residual = 0.000176755, No Iterations 5
GAMG:  Solving for p, Initial residual = 0.000984595, Final residual = 4.40218e-05, No Iterations 3
time step continuity errors : sum local = 0.000110034, global = 7.30765e-06, cumulative = 0.00735564
smoothSolver:  Solving for omega, Initial residual = 1.34308e-05, Final residual = 7.21258e-07, No Iterations 2
smoothSolver:  Solving for k, Initial residual = 0.000910301, Final residual = 6.45365e-05, No Iterations 5
ExecutionTime = 0.67 s  ClockTime = 1 s

scalarTransport execute: age
smoothSolver:  Solving for age, Initial residual = 0.00362506, Final residual = 0.000326185, No Iterations 13

Time = 50

smoothSolver:  Solving for Ux, Initial residual = 0.00234421, Final residual = 0.000203261, No Iterations 5
smoothSolver:  Solving for Uy, Initial residual = 0.00211943, Final residual = 0.00017444, No Iterations 5
GAMG:  Solving for p, Initial residual = 0.000885108, Final residual = 3.99774e-05, No Iterations 3
time step continuity errors : sum local = 9.98348e-05, global = 7.32448e-06, cumulative = 0.00736296
smoothSolver:  Solving for omega, Initial residual = 1.26304e-05, Final residual = 6.65367e-07, No Iterations 2
smoothSolver:  Solving for k, Initial residual = 0.000827087, Final residual = 5.74588e-05, No Iterations 5
ExecutionTime = 0.68 s  ClockTime = 1 s

scalarTransport execute: age
smoothSolver:  Solving for age, Initial residual = 0.00342705, Final residual = 0.000333035, No Iterations 12

Time = 51

smoothSolver:  Solving for Ux, Initial residual = 0.00203326, Final residual = 0.000134262, No Iterations 6
smoothSolver:  Solving for Uy, Initial residual = 0.00162101, Final residual = 0.000107481, No Iterations 6
GAMG:  Solving for p, Initial residual = 0.000874675, Final residual = 4.10537e-05, No Iterations 3
time step continuity errors : sum local = 0.000102442, global = 7.46769e-06, cumulative = 0.00737043
smoothSolver:  Solving for omega, Initial residual = 1.08775e-05, Final residual = 6.57076e-07, No Iterations 2
smoothSolver:  Solving for k, Initial residual = 0.000748366, Final residual = 5.10528e-05, No Iterations 5
ExecutionTime = 0.69 s  ClockTime = 1 s

scalarTransport execute: age
smoothSolver:  Solving for age, Initial residual = 0.00327041, Final residual = 0.000301461, No Iterations 12

Time = 52

smoothSolver:  Solving for Ux, Initial residual = 0.0122438, Final residual = 1.11965e-05, No Iterations 1
smoothSolver:  Solving for Uy, Initial residual = 0.0764326, Final residual = 0.000860815, No Iterations 1
GAMG:  Solving for p, Initial residual = 0.000568434, Final residual = 5.1329e-05, No Iterations 2
time step continuity errors : sum local = 0.000128, global = 7.06479e-06, cumulative = 0.0073775
smoothSolver:  Solving for omega, Initial residual = 4.00775e-06, Final residual = 2.46726e-07, No Iterations 2
smoothSolver:  Solving for k, Initial residual = 0.000655724, Final residual = 4.52637e-05, No Iterations 5
ExecutionTime = 0.7 s  ClockTime = 1 s

scalarTransport execute: age
smoothSolver:  Solving for age, Initial residual = 0.00315302, Final residual = 0.000302326, No Iterations 12

Time = 53

smoothSolver:  Solving for Ux, Initial residual = 0.00414412, Final residual = 0.00038933, No Iterations 3
smoothSolver:  Solving for Uy, Initial residual = 0.00228931, Final residual = 0.000156675, No Iterations 5
GAMG:  Solving for p, Initial residual = 0.000864935, Final residual = 3.75854e-05, No Iterations 3
time step continuity errors : sum local = 9.36983e-05, global = 6.92391e-06, cumulative = 0.00738442
smoothSolver:  Solving for omega, Initial residual = 1.34817e-05, Final residual = 5.97738e-07, No Iterations 2
smoothSolver:  Solving for k, Initial residual = 0.000600185, Final residual = 4.00769e-05, No Iterations 5
ExecutionTime = 0.71 s  ClockTime = 1 s

scalarTransport execute: age
smoothSolver:  Solving for age, Initial residual = 0.0030538, Final residual = 0.00028671, No Iterations 12

Time = 54

smoothSolver:  Solving for Ux, Initial residual = 0.00637347, Final residual = 0.000435002, No Iterations 2
smoothSolver:  Solving for Uy, Initial residual = 0.00468005, Final residual = 0.000347597, No Iterations 3
GAMG:  Solving for p, Initial residual = 0.000684084, Final residual = 2.9866e-05, No Iterations 3
time step continuity errors : sum local = 7.44096e-05, global = 5.85514e-06, cumulative = 0.00739028
smoothSolver:  Solving for omega, Initial residual = 1.46367e-05, Final residual = 5.90171e-07, No Iterations 2
smoothSolver:  Solving for k, Initial residual = 0.000546201, Final residual = 3.54249e-05, No Iterations 5
ExecutionTime = 0.73 s  ClockTime = 1 s

scalarTransport execute: age
smoothSolver:  Solving for age, Initial residual = 0.00292932, Final residual = 0.000276532, No Iterations 12

Time = 55

smoothSolver:  Solving for Ux, Initial residual = 0.00193076, Final residual = 0.000127842, No Iterations 6
smoothSolver:  Solving for Uy, Initial residual = 0.00145134, Final residual = 0.000137076, No Iterations 5
GAMG:  Solving for p, Initial residual = 0.000886458, Final residual = 4.08003e-05, No Iterations 3
time step continuity errors : sum local = 0.000101587, global = 7.85062e-06, cumulative = 0.00739813
smoothSolver:  Solving for omega, Initial residual = 1.15829e-05, Final residual = 6.00154e-07, No Iterations 2
smoothSolver:  Solving for k, Initial residual = 0.000494948, Final residual = 3.12717e-05, No Iterations 5
ExecutionTime = 0.74 s  ClockTime = 1 s

scalarTransport execute: age
smoothSolver:  Solving for age, Initial residual = 0.00286162, Final residual = 0.000265072, No Iterations 12

Time = 56

smoothSolver:  Solving for Ux, Initial residual = 0.00175343, Final residual = 0.000115487, No Iterations 6
smoothSolver:  Solving for Uy, Initial residual = 0.00145697, Final residual = 0.000142092, No Iterations 5
GAMG:  Solving for p, Initial residual = 0.000795666, Final residual = 4.18019e-05, No Iterations 3
time step continuity errors : sum local = 0.000103981, global = 9.10955e-06, cumulative = 0.00740724
smoothSolver:  Solving for omega, Initial residual = 1.0599e-05, Final residual = 5.90112e-07, No Iterations 2
smoothSolver:  Solving for k, Initial residual = 0.000454053, Final residual = 4.51819e-05, No Iterations 4
ExecutionTime = 0.75 s  ClockTime = 1 s

scalarTransport execute: age
smoothSolver:  Solving for age, Initial residual = 0.00280934, Final residual = 0.000252585, No Iterations 12

Time = 57

smoothSolver:  Solving for Ux, Initial residual = 0.00171159, Final residual = 0.000170145, No Iterations 5
smoothSolver:  Solving for Uy, Initial residual = 0.00142602, Final residual = 0.000137485, No Iterations 5
GAMG:  Solving for p, Initial residual = 0.000753214, Final residual = 4.13343e-05, No Iterations 3
time step continuity errors : sum local = 0.00010271, global = 8.95178e-06, cumulative = 0.00741619
smoothSolver:  Solving for omega, Initial residual = 9.79108e-06, Final residual = 5.37197e-07, No Iterations 2
smoothSolver:  Solving for k, Initial residual = 0.000418106, Final residual = 4.01123e-05, No Iterations 4
ExecutionTime = 0.76 s  ClockTime = 1 s

scalarTransport execute: age
smoothSolver:  Solving for age, Initial residual = 0.00275241, Final residual = 0.000245335, No Iterations 12

Time = 58

smoothSolver:  Solving for Ux, Initial residual = 0.00170105, Final residual = 0.000163514, No Iterations 5
smoothSolver:  Solving for Uy, Initial residual = 0.00138219, Final residual = 0.000131064, No Iterations 5
GAMG:  Solving for p, Initial residual = 0.000775713, Final residual = 3.76843e-05, No Iterations 3
time step continuity errors : sum local = 9.35532e-05, global = 8.36732e-06, cumulative = 0.00742456
smoothSolver:  Solving for omega, Initial residual = 1.02553e-05, Final residual = 5.77611e-07, No Iterations 2
smoothSolver:  Solving for k, Initial residual = 0.000386428, Final residual = 3.55802e-05, No Iterations 4
ExecutionTime = 0.78 s  ClockTime = 1 s

scalarTransport execute: age
smoothSolver:  Solving for age, Initial residual = 0.0027571, Final residual = 0.000274698, No Iterations 11

Time = 59

smoothSolver:  Solving for Ux, Initial residual = 0.00156932, Final residual = 0.000102181, No Iterations 6
smoothSolver:  Solving for Uy, Initial residual = 0.00128548, Final residual = 0.000125455, No Iterations 5
GAMG:  Solving for p, Initial residual = 0.000742707, Final residual = 3.45559e-05, No Iterations 3
time step continuity errors : sum local = 8.57162e-05, global = 7.39106e-06, cumulative = 0.00743195
smoothSolver:  Solving for omega, Initial residual = 9.37321e-06, Final residual = 5.51209e-07, No Iterations 2
smoothSolver:  Solving for k, Initial residual = 0.000353365, Final residual = 3.154e-05, No Iterations 4
ExecutionTime = 0.79 s  ClockTime = 1 s

scalarTransport execute: age
smoothSolver:  Solving for age, Initial residual = 0.00265587, Final residual = 0.000237189, No Iterations 12

Time = 60

smoothSolver:  Solving for Ux, Initial residual = 0.00149562, Final residual = 0.000148195, No Iterations 5
smoothSolver:  Solving for Uy, Initial residual = 0.00127474, Final residual = 0.000121787, No Iterations 5
GAMG:  Solving for p, Initial residual = 0.000698634, Final residual = 3.66879e-05, No Iterations 3
time step continuity errors : sum local = 9.09192e-05, global = 7.48255e-06, cumulative = 0.00743943
smoothSolver:  Solving for omega, Initial residual = 1.14628e-05, Final residual = 5.64839e-07, No Iterations 2
smoothSolver:  Solving for k, Initial residual = 0.000324912, Final residual = 2.79439e-05, No Iterations 4
ExecutionTime = 0.8 s  ClockTime = 1 s

scalarTransport execute: age
smoothSolver:  Solving for age, Initial residual = 0.00256833, Final residual = 0.00023304, No Iterations 12

Time = 61

smoothSolver:  Solving for Ux, Initial residual = 0.00484142, Final residual = 0.000385705, No Iterations 2
smoothSolver:  Solving for Uy, Initial residual = 0.00169532, Final residual = 0.00011501, No Iterations 5
GAMG:  Solving for p, Initial residual = 0.000697608, Final residual = 2.92383e-05, No Iterations 3
time step continuity errors : sum local = 7.24079e-05, global = 5.81998e-06, cumulative = 0.00744525
smoothSolver:  Solving for omega, Initial residual = 1.16893e-05, Final residual = 5.68503e-07, No Iterations 2
smoothSolver:  Solving for k, Initial residual = 0.000295542, Final residual = 2.47442e-05, No Iterations 4
ExecutionTime = 0.81 s  ClockTime = 1 s

scalarTransport execute: age
smoothSolver:  Solving for age, Initial residual = 0.00257079, Final residual = 0.000233142, No Iterations 12

Time = 62

smoothSolver:  Solving for Ux, Initial residual = 0.0014265, Final residual = 0.000142597, No Iterations 5
smoothSolver:  Solving for Uy, Initial residual = 0.00191192, Final residual = 0.000156142, No Iterations 4
GAMG:  Solving for p, Initial residual = 0.000765299, Final residual = 3.425e-05, No Iterations 3
time step continuity errors : sum local = 8.47659e-05, global = 6.96329e-06, cumulative = 0.00745221
smoothSolver:  Solving for omega, Initial residual = 1.52552e-05, Final residual = 5.75037e-07, No Iterations 2
smoothSolver:  Solving for k, Initial residual = 0.000280626, Final residual = 2.19096e-05, No Iterations 4
ExecutionTime = 0.83 s  ClockTime = 1 s

scalarTransport execute: age
smoothSolver:  Solving for age, Initial residual = 0.00253512, Final residual = 0.000228213, No Iterations 12

Time = 63

smoothSolver:  Solving for Ux, Initial residual = 0.00133682, Final residual = 0.000127314, No Iterations 5
smoothSolver:  Solving for Uy, Initial residual = 0.00169011, Final residual = 0.000163747, No Iterations 4
GAMG:  Solving for p, Initial residual = 0.000712348, Final residual = 3.34643e-05, No Iterations 3
time step continuity errors : sum local = 8.2763e-05, global = 7.10884e-06, cumulative = 0.00745932
smoothSolver:  Solving for omega, Initial residual = 1.64346e-05, Final residual = 5.76578e-07, No Iterations 2
smoothSolver:  Solving for k, Initial residual = 0.000264926, Final residual = 1.94019e-05, No Iterations 4
ExecutionTime = 0.84 s  ClockTime = 1 s

scalarTransport execute: age
smoothSolver:  Solving for age, Initial residual = 0.00254854, Final residual = 0.000235353, No Iterations 12

Time = 64

smoothSolver:  Solving for Ux, Initial residual = 0.00129248, Final residual = 0.000112227, No Iterations 5
smoothSolver:  Solving for Uy, Initial residual = 0.00254483, Final residual = 0.000246606, No Iterations 3
GAMG:  Solving for p, Initial residual = 0.000637431, Final residual = 2.83991e-05, No Iterations 3
time step continuity errors : sum local = 7.01716e-05, global = 6.42264e-06, cumulative = 0.00746574
smoothSolver:  Solving for omega, Initial residual = 1.47771e-05, Final residual = 5.164e-07, No Iterations 2
smoothSolver:  Solving for k, Initial residual = 0.00024225, Final residual = 1.71832e-05, No Iterations 4
ExecutionTime = 0.84 s  ClockTime = 1 s

scalarTransport execute: age
smoothSolver:  Solving for age, Initial residual = 0.0024983, Final residual = 0.000234957, No Iterations 12

Time = 65

smoothSolver:  Solving for Ux, Initial residual = 0.00115606, Final residual = 0.000112305, No Iterations 5
smoothSolver:  Solving for Uy, Initial residual = 0.00108588, Final residual = 0.000102013, No Iterations 5
GAMG:  Solving for p, Initial residual = 0.000643964, Final residual = 2.90917e-05, No Iterations 3
time step continuity errors : sum local = 7.18229e-05, global = 5.40831e-06, cumulative = 0.00747115
smoothSolver:  Solving for omega, Initial residual = 1.27171e-05, Final residual = 4.78434e-07, No Iterations 2
smoothSolver:  Solving for k, Initial residual = 0.000217656, Final residual = 1.52241e-05, No Iterations 4
ExecutionTime = 0.85 s  ClockTime = 1 s

scalarTransport execute: age
smoothSolver:  Solving for age, Initial residual = 0.00238311, Final residual = 0.000229514, No Iterations 12

Time = 66

smoothSolver:  Solving for Ux, Initial residual = 0.00120254, Final residual = 0.000101239, No Iterations 5
smoothSolver:  Solving for Uy, Initial residual = 0.00255238, Final residual = 0.000224919, No Iterations 3
GAMG:  Solving for p, Initial residual = 0.000634383, Final residual = 2.6505e-05, No Iterations 3
time step continuity errors : sum local = 6.53936e-05, global = 5.41879e-06, cumulative = 0.00747657
smoothSolver:  Solving for omega, Initial residual = 1.01123e-05, Final residual = 4.25755e-07, No Iterations 2
smoothSolver:  Solving for k, Initial residual = 0.000206003, Final residual = 1.3492e-05, No Iterations 4
ExecutionTime = 0.88 s  ClockTime = 1 s

scalarTransport execute: age
smoothSolver:  Solving for age, Initial residual = 0.0023379, Final residual = 0.000224818, No Iterations 12

Time = 67

smoothSolver:  Solving for Ux, Initial residual = 0.00108336, Final residual = 9.33341e-05, No Iterations 5
smoothSolver:  Solving for Uy, Initial residual = 0.00243869, Final residual = 0.000223715, No Iterations 3
GAMG:  Solving for p, Initial residual = 0.000570566, Final residual = 2.5293e-05, No Iterations 3
time step continuity errors : sum local = 6.23663e-05, global = 5.20525e-06, cumulative = 0.00748178
smoothSolver:  Solving for omega, Initial residual = 9.47755e-06, Final residual = 4.27097e-07, No Iterations 2
smoothSolver:  Solving for k, Initial residual = 0.000199375, Final residual = 1.95443e-05, No Iterations 3
ExecutionTime = 0.89 s  ClockTime = 1 s

scalarTransport execute: age
smoothSolver:  Solving for age, Initial residual = 0.00228755, Final residual = 0.000220096, No Iterations 12

Time = 68

smoothSolver:  Solving for Ux, Initial residual = 0.00101945, Final residual = 9.23391e-05, No Iterations 5
smoothSolver:  Solving for Uy, Initial residual = 0.0012845, Final residual = 8.8994e-05, No Iterations 5
GAMG:  Solving for p, Initial residual = 0.000601334, Final residual = 2.71581e-05, No Iterations 3
time step continuity errors : sum local = 6.69241e-05, global = 4.83848e-06, cumulative = 0.00748661
smoothSolver:  Solving for omega, Initial residual = 8.66516e-06, Final residual = 4.04577e-07, No Iterations 2
smoothSolver:  Solving for k, Initial residual = 0.000182697, Final residual = 1.75617e-05, No Iterations 3
ExecutionTime = 0.9 s  ClockTime = 1 s

scalarTransport execute: age
smoothSolver:  Solving for age, Initial residual = 0.00225743, Final residual = 0.000215415, No Iterations 12

Time = 69

smoothSolver:  Solving for Ux, Initial residual = 0.00100357, Final residual = 8.36405e-05, No Iterations 1
smoothSolver:  Solving for Uy, Initial residual = 0.0820296, Final residual = 0.000442008, No Iterations 1
GAMG:  Solving for p, Initial residual = 0.000398265, Final residual = 3.47608e-05, No Iterations 2
time step continuity errors : sum local = 8.5622e-05, global = 4.53215e-06, cumulative = 0.00749115
smoothSolver:  Solving for omega, Initial residual = 6.92163e-06, Final residual = 3.43568e-07, No Iterations 2
smoothSolver:  Solving for k, Initial residual = 0.000158519, Final residual = 1.57734e-05, No Iterations 3
ExecutionTime = 0.91 s  ClockTime = 1 s

scalarTransport execute: age
smoothSolver:  Solving for age, Initial residual = 0.00215861, Final residual = 0.000213756, No Iterations 12

Time = 70

smoothSolver:  Solving for Ux, Initial residual = 0.000945632, Final residual = 9.15403e-05, No Iterations 5
smoothSolver:  Solving for Uy, Initial residual = 0.000900223, Final residual = 7.93189e-05, No Iterations 5
GAMG:  Solving for p, Initial residual = 0.000583735, Final residual = 2.57111e-05, No Iterations 3
time step continuity errors : sum local = 6.33133e-05, global = 4.92454e-06, cumulative = 0.00749607
smoothSolver:  Solving for omega, Initial residual = 6.21636e-06, Final residual = 3.5914e-07, No Iterations 2
smoothSolver:  Solving for k, Initial residual = 0.000146677, Final residual = 1.41943e-05, No Iterations 3
ExecutionTime = 0.93 s  ClockTime = 1 s

scalarTransport execute: age
smoothSolver:  Solving for age, Initial residual = 0.00212812, Final residual = 0.000211368, No Iterations 12

Time = 71

smoothSolver:  Solving for Ux, Initial residual = 0.000916678, Final residual = 8.08876e-05, No Iterations 5
smoothSolver:  Solving for Uy, Initial residual = 0.0016647, Final residual = 0.000115632, No Iterations 4
GAMG:  Solving for p, Initial residual = 0.000527507, Final residual = 2.35406e-05, No Iterations 3
time step continuity errors : sum local = 5.79374e-05, global = 4.62052e-06, cumulative = 0.00750069
smoothSolver:  Solving for omega, Initial residual = 7.68254e-06, Final residual = 3.58576e-07, No Iterations 2
smoothSolver:  Solving for k, Initial residual = 0.000145819, Final residual = 1.27845e-05, No Iterations 3
ExecutionTime = 0.94 s  ClockTime = 1 s

scalarTransport execute: age
smoothSolver:  Solving for age, Initial residual = 0.00205132, Final residual = 0.000204305, No Iterations 12

Time = 72

smoothSolver:  Solving for Ux, Initial residual = 0.000824994, Final residual = 7.87058e-05, No Iterations 5
smoothSolver:  Solving for Uy, Initial residual = 0.000827656, Final residual = 7.18336e-05, No Iterations 5
GAMG:  Solving for p, Initial residual = 0.000495808, Final residual = 2.07377e-05, No Iterations 3
time step continuity errors : sum local = 5.10112e-05, global = 3.71957e-06, cumulative = 0.00750441
smoothSolver:  Solving for omega, Initial residual = 8.41277e-06, Final residual = 3.68616e-07, No Iterations 2
smoothSolver:  Solving for k, Initial residual = 0.000139416, Final residual = 1.15245e-05, No Iterations 3
ExecutionTime = 0.95 s  ClockTime = 1 s

scalarTransport execute: age
smoothSolver:  Solving for age, Initial residual = 0.00203173, Final residual = 0.000196423, No Iterations 12

Time = 73

smoothSolver:  Solving for Ux, Initial residual = 0.00078324, Final residual = 7.55153e-05, No Iterations 5
smoothSolver:  Solving for Uy, Initial residual = 0.000715819, Final residual = 6.63127e-05, No Iterations 5
GAMG:  Solving for p, Initial residual = 0.000478285, Final residual = 2.00951e-05, No Iterations 3
time step continuity errors : sum local = 4.94057e-05, global = 3.2264e-06, cumulative = 0.00750764
smoothSolver:  Solving for omega, Initial residual = 5.58651e-06, Final residual = 3.29298e-07, No Iterations 2
smoothSolver:  Solving for k, Initial residual = 0.000128803, Final residual = 1.03966e-05, No Iterations 3
ExecutionTime = 0.96 s  ClockTime = 1 s

scalarTransport execute: age
smoothSolver:  Solving for age, Initial residual = 0.00199844, Final residual = 0.000190231, No Iterations 12

Time = 74

smoothSolver:  Solving for Ux, Initial residual = 0.000735179, Final residual = 7.06425e-05, No Iterations 5
smoothSolver:  Solving for Uy, Initial residual = 0.000678877, Final residual = 6.27411e-05, No Iterations 5
GAMG:  Solving for p, Initial residual = 0.000433894, Final residual = 1.7841e-05, No Iterations 3
time step continuity errors : sum local = 4.38463e-05, global = 2.81151e-06, cumulative = 0.00751045
smoothSolver:  Solving for omega, Initial residual = 6.7644e-06, Final residual = 3.31099e-07, No Iterations 2
smoothSolver:  Solving for k, Initial residual = 0.000120621, Final residual = 9.38787e-06, No Iterations 3
ExecutionTime = 0.98 s  ClockTime = 1 s

scalarTransport execute: age
smoothSolver:  Solving for age, Initial residual = 0.00190344, Final residual = 0.000184792, No Iterations 12

Time = 75

smoothSolver:  Solving for Ux, Initial residual = 0.000755905, Final residual = 6.53254e-05, No Iterations 5
smoothSolver:  Solving for Uy, Initial residual = 0.00080987, Final residual = 5.84603e-05, No Iterations 5
GAMG:  Solving for p, Initial residual = 0.000490299, Final residual = 1.99733e-05, No Iterations 3
time step continuity errors : sum local = 4.90686e-05, global = 2.25529e-06, cumulative = 0.0075127
smoothSolver:  Solving for omega, Initial residual = 6.99462e-06, Final residual = 3.25269e-07, No Iterations 2
smoothSolver:  Solving for k, Initial residual = 0.000122374, Final residual = 8.48429e-06, No Iterations 3
ExecutionTime = 0.99 s  ClockTime = 1 s

scalarTransport execute: age
smoothSolver:  Solving for age, Initial residual = 0.00188209, Final residual = 0.000182688, No Iterations 12

Time = 76

smoothSolver:  Solving for Ux, Initial residual = 0.000697669, Final residual = 5.89063e-05, No Iterations 5
smoothSolver:  Solving for Uy, Initial residual = 0.00142724, Final residual = 0.000134695, No Iterations 3
GAMG:  Solving for p, Initial residual = 0.000469213, Final residual = 1.78571e-05, No Iterations 3
time step continuity errors : sum local = 4.38595e-05, global = 2.70274e-06, cumulative = 0.00751541
smoothSolver:  Solving for omega, Initial residual = 6.14623e-06, Final residual = 3.3528e-07, No Iterations 2
smoothSolver:  Solving for k, Initial residual = 0.000121479, Final residual = 7.676e-06, No Iterations 3
ExecutionTime = 1 s  ClockTime = 1 s

scalarTransport execute: age
smoothSolver:  Solving for age, Initial residual = 0.00183994, Final residual = 0.000176839, No Iterations 12

Time = 77

smoothSolver:  Solving for Ux, Initial residual = 0.000648094, Final residual = 5.58275e-05, No Iterations 5
smoothSolver:  Solving for Uy, Initial residual = 0.000719462, Final residual = 5.49329e-05, No Iterations 5
GAMG:  Solving for p, Initial residual = 0.00042828, Final residual = 1.628e-05, No Iterations 3
time step continuity errors : sum local = 3.99747e-05, global = 1.83052e-06, cumulative = 0.00751724
smoothSolver:  Solving for omega, Initial residual = 6.21557e-06, Final residual = 3.55311e-07, No Iterations 2
smoothSolver:  Solving for k, Initial residual = 0.000112782, Final residual = 6.95172e-06, No Iterations 3
ExecutionTime = 1.01 s  ClockTime = 1 s

scalarTransport execute: age
smoothSolver:  Solving for age, Initial residual = 0.00177955, Final residual = 0.00017209, No Iterations 12

Time = 78

smoothSolver:  Solving for Ux, Initial residual = 0.000604946, Final residual = 5.43087e-05, No Iterations 5
smoothSolver:  Solving for Uy, Initial residual = 0.000561749, Final residual = 5.00784e-05, No Iterations 5
GAMG:  Solving for p, Initial residual = 0.000393065, Final residual = 1.50513e-05, No Iterations 3
time step continuity errors : sum local = 3.69488e-05, global = 1.34094e-06, cumulative = 0.00751858
smoothSolver:  Solving for omega, Initial residual = 5.85845e-06, Final residual = 3.42071e-07, No Iterations 2
smoothSolver:  Solving for k, Initial residual = 0.000105036, Final residual = 1.02508e-05, No Iterations 2
ExecutionTime = 1.02 s  ClockTime = 1 s

scalarTransport execute: age
smoothSolver:  Solving for age, Initial residual = 0.00169603, Final residual = 0.000166789, No Iterations 12

Time = 79

smoothSolver:  Solving for Ux, Initial residual = 0.000604424, Final residual = 5.02561e-05, No Iterations 5
smoothSolver:  Solving for Uy, Initial residual = 0.000822271, Final residual = 7.31476e-05, No Iterations 4
GAMG:  Solving for p, Initial residual = 0.000408639, Final residual = 1.69132e-05, No Iterations 3
time step continuity errors : sum local = 4.15104e-05, global = 1.3125e-06, cumulative = 0.00751989
smoothSolver:  Solving for omega, Initial residual = 5.7096e-06, Final residual = 3.00381e-07, No Iterations 2
smoothSolver:  Solving for k, Initial residual = 0.000103561, Final residual = 9.48011e-06, No Iterations 2
ExecutionTime = 1.04 s  ClockTime = 1 s

scalarTransport execute: age
smoothSolver:  Solving for age, Initial residual = 0.00165419, Final residual = 0.000162939, No Iterations 12

Time = 80

smoothSolver:  Solving for Ux, Initial residual = 0.000575367, Final residual = 4.72838e-05, No Iterations 5
smoothSolver:  Solving for Uy, Initial residual = 0.000872125, Final residual = 7.09225e-05, No Iterations 4
GAMG:  Solving for p, Initial residual = 0.000431679, Final residual = 1.57922e-05, No Iterations 3
time step continuity errors : sum local = 3.87552e-05, global = 1.55877e-06, cumulative = 0.00752145
smoothSolver:  Solving for omega, Initial residual = 5.79617e-06, Final residual = 2.7852e-07, No Iterations 2
smoothSolver:  Solving for k, Initial residual = 0.000105441, Final residual = 8.77052e-06, No Iterations 2
ExecutionTime = 1.05 s  ClockTime = 1 s

scalarTransport execute: age
smoothSolver:  Solving for age, Initial residual = 0.00162847, Final residual = 0.000160172, No Iterations 12

Time = 81

smoothSolver:  Solving for Ux, Initial residual = 0.000541963, Final residual = 4.51012e-05, No Iterations 5
smoothSolver:  Solving for Uy, Initial residual = 0.000579337, Final residual = 4.2293e-05, No Iterations 5
GAMG:  Solving for p, Initial residual = 0.000387037, Final residual = 3.76461e-05, No Iterations 2
time step continuity errors : sum local = 9.23782e-05, global = 1.03919e-06, cumulative = 0.00752249
smoothSolver:  Solving for omega, Initial residual = 4.6118e-06, Final residual = 2.58282e-07, No Iterations 2
smoothSolver:  Solving for k, Initial residual = 9.68374e-05, Final residual = 8.12305e-06, No Iterations 2
ExecutionTime = 1.06 s  ClockTime = 1 s

scalarTransport execute: age
smoothSolver:  Solving for age, Initial residual = 0.00159318, Final residual = 0.000157049, No Iterations 12

Time = 82

smoothSolver:  Solving for Ux, Initial residual = 0.00075301, Final residual = 5.64072e-05, No Iterations 4
smoothSolver:  Solving for Uy, Initial residual = 0.00324078, Final residual = 0.000246434, No Iterations 1
GAMG:  Solving for p, Initial residual = 0.000438612, Final residual = 2.26012e-05, No Iterations 3
time step continuity errors : sum local = 5.54552e-05, global = 2.0224e-06, cumulative = 0.00752451
smoothSolver:  Solving for omega, Initial residual = 4.1255e-06, Final residual = 2.39956e-07, No Iterations 2
smoothSolver:  Solving for k, Initial residual = 9.33522e-05, Final residual = 7.52366e-06, No Iterations 2
ExecutionTime = 1.07 s  ClockTime = 1 s

scalarTransport execute: age
smoothSolver:  Solving for age, Initial residual = 0.0015341, Final residual = 0.000133214, No Iterations 13

Time = 83

smoothSolver:  Solving for Ux, Initial residual = 0.000965382, Final residual = 1.01323e-06, No Iterations 1
smoothSolver:  Solving for Uy, Initial residual = 0.664024, Final residual = 5.27287e-05, No Iterations 1
GAMG:  Solving for p, Initial residual = 0.000311829, Final residual = 2.87716e-05, No Iterations 2
time step continuity errors : sum local = 7.05904e-05, global = 2.40671e-06, cumulative = 0.00752692
smoothSolver:  Solving for omega, Initial residual = 9.90661e-07, Final residual = 4.36375e-08, No Iterations 2
smoothSolver:  Solving for k, Initial residual = 9.73492e-05, Final residual = 6.97309e-06, No Iterations 2
ExecutionTime = 1.08 s  ClockTime = 1 s

scalarTransport execute: age
smoothSolver:  Solving for age, Initial residual = 0.00151591, Final residual = 0.000147237, No Iterations 12

Time = 84

smoothSolver:  Solving for Ux, Initial residual = 0.000444903, Final residual = 3.66722e-05, No Iterations 5
smoothSolver:  Solving for Uy, Initial residual = 0.0005068, Final residual = 4.18962e-05, No Iterations 5
GAMG:  Solving for p, Initial residual = 0.000352212, Final residual = 3.07552e-05, No Iterations 2
time step continuity errors : sum local = 7.54521e-05, global = 6.47086e-07, cumulative = 0.00752757
smoothSolver:  Solving for omega, Initial residual = 5.9359e-06, Final residual = 2.66714e-07, No Iterations 2
smoothSolver:  Solving for k, Initial residual = 8.29749e-05, Final residual = 6.47132e-06, No Iterations 2
ExecutionTime = 1.1 s  ClockTime = 1 s

scalarTransport execute: age
smoothSolver:  Solving for age, Initial residual = 0.00145875, Final residual = 0.000144174, No Iterations 12

Time = 85

smoothSolver:  Solving for Ux, Initial residual = 0.000601748, Final residual = 5.04858e-05, No Iterations 4
smoothSolver:  Solving for Uy, Initial residual = 0.00245627, Final residual = 0.000229744, No Iterations 1
GAMG:  Solving for p, Initial residual = 0.000409424, Final residual = 1.89629e-05, No Iterations 3
time step continuity errors : sum local = 4.65182e-05, global = 1.37111e-06, cumulative = 0.00752894
smoothSolver:  Solving for omega, Initial residual = 5.52825e-06, Final residual = 2.28432e-07, No Iterations 2
smoothSolver:  Solving for k, Initial residual = 8.98042e-05, Final residual = 6.01616e-06, No Iterations 2
ExecutionTime = 1.11 s  ClockTime = 1 s

scalarTransport execute: age
smoothSolver:  Solving for age, Initial residual = 0.00141636, Final residual = 0.00012277, No Iterations 13

Time = 86

smoothSolver:  Solving for Ux, Initial residual = 0.000410194, Final residual = 3.23784e-05, No Iterations 5
smoothSolver:  Solving for Uy, Initial residual = 0.000483982, Final residual = 3.88262e-05, No Iterations 5
GAMG:  Solving for p, Initial residual = 0.000332387, Final residual = 2.97409e-05, No Iterations 2
time step continuity errors : sum local = 7.29558e-05, global = 2.42101e-07, cumulative = 0.00752918
smoothSolver:  Solving for omega, Initial residual = 5.4612e-06, Final residual = 2.32202e-07, No Iterations 2
smoothSolver:  Solving for k, Initial residual = 8.20458e-05, Final residual = 5.59632e-06, No Iterations 2
ExecutionTime = 1.12 s  ClockTime = 1 s

scalarTransport execute: age
smoothSolver:  Solving for age, Initial residual = 0.0013718, Final residual = 0.000120109, No Iterations 13

Time = 87

smoothSolver:  Solving for Ux, Initial residual = 0.000417678, Final residual = 3.2472e-05, No Iterations 5
smoothSolver:  Solving for Uy, Initial residual = 0.000430716, Final residual = 3.43545e-05, No Iterations 5
GAMG:  Solving for p, Initial residual = 0.000328342, Final residual = 3.22582e-05, No Iterations 2
time step continuity errors : sum local = 7.91216e-05, global = -1.82568e-06, cumulative = 0.00752735
smoothSolver:  Solving for omega, Initial residual = 3.88779e-06, Final residual = 1.87539e-07, No Iterations 2
smoothSolver:  Solving for k, Initial residual = 7.10599e-05, Final residual = 5.20864e-06, No Iterations 2
ExecutionTime = 1.13 s  ClockTime = 1 s

scalarTransport execute: age
smoothSolver:  Solving for age, Initial residual = 0.00133714, Final residual = 0.000117274, No Iterations 13

Time = 88

smoothSolver:  Solving for Ux, Initial residual = 0.000394582, Final residual = 3.20481e-05, No Iterations 5
smoothSolver:  Solving for Uy, Initial residual = 0.000360619, Final residual = 3.08792e-05, No Iterations 5
GAMG:  Solving for p, Initial residual = 0.000299501, Final residual = 1.22621e-05, No Iterations 3
time step continuity errors : sum local = 3.00753e-05, global = -2.00687e-06, cumulative = 0.00752535
smoothSolver:  Solving for omega, Initial residual = 4.22095e-06, Final residual = 1.78257e-07, No Iterations 2
smoothSolver:  Solving for k, Initial residual = 6.91189e-05, Final residual = 4.85723e-06, No Iterations 2
ExecutionTime = 1.14 s  ClockTime = 2 s

scalarTransport execute: age
smoothSolver:  Solving for age, Initial residual = 0.00130277, Final residual = 0.000114772, No Iterations 13

Time = 89

smoothSolver:  Solving for Ux, Initial residual = 0.000377006, Final residual = 3.01846e-05, No Iterations 5
smoothSolver:  Solving for Uy, Initial residual = 0.000518191, Final residual = 4.38497e-05, No Iterations 4
GAMG:  Solving for p, Initial residual = 0.000299926, Final residual = 2.95549e-05, No Iterations 2
time step continuity errors : sum local = 7.2488e-05, global = -2.25592e-06, cumulative = 0.00752309
smoothSolver:  Solving for omega, Initial residual = 4.16182e-06, Final residual = 1.68559e-07, No Iterations 2
smoothSolver:  Solving for k, Initial residual = 6.8315e-05, Final residual = 4.5293e-06, No Iterations 2
ExecutionTime = 1.16 s  ClockTime = 2 s

scalarTransport execute: age
smoothSolver:  Solving for age, Initial residual = 0.00130202, Final residual = 0.000129423, No Iterations 12

Time = 90

smoothSolver:  Solving for Ux, Initial residual = 0.000644925, Final residual = 5.21122e-05, No Iterations 2
smoothSolver:  Solving for Uy, Initial residual = 0.0172708, Final residual = 0.000170567, No Iterations 1
GAMG:  Solving for p, Initial residual = 0.000334593, Final residual = 1.46332e-05, No Iterations 3
time step continuity errors : sum local = 3.58936e-05, global = -2.47151e-06, cumulative = 0.00752062
smoothSolver:  Solving for omega, Initial residual = 4.97842e-06, Final residual = 1.5465e-07, No Iterations 2
smoothSolver:  Solving for k, Initial residual = 9.05369e-05, Final residual = 7.3838e-06, No Iterations 1
ExecutionTime = 1.17 s  ClockTime = 2 s

scalarTransport execute: age
smoothSolver:  Solving for age, Initial residual = 0.00130658, Final residual = 0.000124625, No Iterations 12

Time = 91

smoothSolver:  Solving for Ux, Initial residual = 0.000404724, Final residual = 2.64266e-05, No Iterations 5
smoothSolver:  Solving for Uy, Initial residual = 0.000415318, Final residual = 2.78033e-05, No Iterations 5
GAMG:  Solving for p, Initial residual = 0.000309453, Final residual = 9.90176e-06, No Iterations 3
time step continuity errors : sum local = 2.42893e-05, global = -3.17365e-06, cumulative = 0.00751744
smoothSolver:  Solving for omega, Initial residual = 6.25067e-06, Final residual = 1.80776e-07, No Iterations 2
smoothSolver:  Solving for k, Initial residual = 8.12546e-05, Final residual = 7.06054e-06, No Iterations 1
ExecutionTime = 1.18 s  ClockTime = 2 s

scalarTransport execute: age
smoothSolver:  Solving for age, Initial residual = 0.00128577, Final residual = 0.000124858, No Iterations 12

Time = 92

smoothSolver:  Solving for Ux, Initial residual = 0.000382008, Final residual = 2.57421e-05, No Iterations 5
smoothSolver:  Solving for Uy, Initial residual = 0.000360162, Final residual = 2.4928e-05, No Iterations 5
GAMG:  Solving for p, Initial residual = 0.000281927, Final residual = 2.65457e-05, No Iterations 2
time step continuity errors : sum local = 6.51187e-05, global = -3.93565e-06, cumulative = 0.00751351
smoothSolver:  Solving for omega, Initial residual = 4.2985e-06, Final residual = 1.41124e-07, No Iterations 2
smoothSolver:  Solving for k, Initial residual = 6.40884e-05, Final residual = 3.88783e-06, No Iterations 2
ExecutionTime = 1.19 s  ClockTime = 2 s

scalarTransport execute: age
smoothSolver:  Solving for age, Initial residual = 0.00123498, Final residual = 0.000107092, No Iterations 13

Time = 93

smoothSolver:  Solving for Ux, Initial residual = 0.000329741, Final residual = 2.45677e-05, No Iterations 5
smoothSolver:  Solving for Uy, Initial residual = 0.000388653, Final residual = 3.64486e-05, No Iterations 4
GAMG:  Solving for p, Initial residual = 0.00029417, Final residual = 1.07686e-05, No Iterations 3
time step continuity errors : sum local = 2.6416e-05, global = -3.8547e-06, cumulative = 0.00750965
smoothSolver:  Solving for omega, Initial residual = 4.62897e-06, Final residual = 1.65641e-07, No Iterations 2
smoothSolver:  Solving for k, Initial residual = 5.73772e-05, Final residual = 3.6226e-06, No Iterations 2
ExecutionTime = 1.2 s  ClockTime = 2 s

scalarTransport execute: age
smoothSolver:  Solving for age, Initial residual = 0.00120405, Final residual = 0.000105722, No Iterations 13

Time = 94

smoothSolver:  Solving for Ux, Initial residual = 0.000908577, Final residual = 8.73921e-05, No Iterations 2
smoothSolver:  Solving for Uy, Initial residual = 0.000307666, Final residual = 2.1861e-05, No Iterations 5
GAMG:  Solving for p, Initial residual = 0.000244845, Final residual = 2.29228e-05, No Iterations 2
time step continuity errors : sum local = 5.624e-05, global = -4.09601e-06, cumulative = 0.00750556
smoothSolver:  Solving for omega, Initial residual = 3.82033e-06, Final residual = 1.43192e-07, No Iterations 2
smoothSolver:  Solving for k, Initial residual = 5.60443e-05, Final residual = 3.3779e-06, No Iterations 2
ExecutionTime = 1.22 s  ClockTime = 2 s

scalarTransport execute: age
smoothSolver:  Solving for age, Initial residual = 0.00117869, Final residual = 0.000104847, No Iterations 13

Time = 95

smoothSolver:  Solving for Ux, Initial residual = 0.000322006, Final residual = 2.23415e-05, No Iterations 5
smoothSolver:  Solving for Uy, Initial residual = 0.00124302, Final residual = 0.000119784, No Iterations 1
[...]
smoothSolver:  Solving for Uy, Initial residual = 0.000113546, Final residual = 6.93572e-06, No Iterations 2
GAMG:  Solving for p, Initial residual = 0.000114832, Final residual = 8.06228e-06, No Iterations 2
time step continuity errors : sum local = 1.98119e-05, global = -8.31527e-08, cumulative = 0.00745149
smoothSolver:  Solving for omega, Initial residual = 2.45392e-06, Final residual = 1.82798e-07, No Iterations 1
smoothSolver:  Solving for k, Initial residual = 2.06948e-05, Final residual = 5.06248e-08, No Iterations 1
ExecutionTime = 21.37 s  ClockTime = 22 s

scalarTransport execute: age
smoothSolver:  Solving for age, Initial residual = 5.91968e-05, Final residual = 5.87054e-06, No Iterations 8

Time = 1978

smoothSolver:  Solving for Ux, Initial residual = 0.000100136, Final residual = 4.35939e-06, No Iterations 2
smoothSolver:  Solving for Uy, Initial residual = 6.73062e-05, Final residual = 4.2792e-06, No Iterations 2
GAMG:  Solving for p, Initial residual = 0.000115242, Final residual = 9.75977e-06, No Iterations 2
time step continuity errors : sum local = 2.39824e-05, global = -6.59486e-08, cumulative = 0.00745143
smoothSolver:  Solving for omega, Initial residual = 1.67655e-06, Final residual = 1.10624e-07, No Iterations 1
smoothSolver:  Solving for k, Initial residual = 9.03948e-06, Final residual = 4.33326e-08, No Iterations 1
ExecutionTime = 21.38 s  ClockTime = 22 s

scalarTransport execute: age
smoothSolver:  Solving for age, Initial residual = 5.7369e-05, Final residual = 5.1168e-06, No Iterations 8

Time = 1979

smoothSolver:  Solving for Ux, Initial residual = 0.000136995, Final residual = 1.27074e-05, No Iterations 1
smoothSolver:  Solving for Uy, Initial residual = 9.58803e-05, Final residual = 4.55129e-06, No Iterations 2
GAMG:  Solving for p, Initial residual = 0.000114016, Final residual = 8.2006e-06, No Iterations 2
time step continuity errors : sum local = 2.01513e-05, global = -2.53541e-08, cumulative = 0.0074514
smoothSolver:  Solving for omega, Initial residual = 1.7896e-06, Final residual = 1.52143e-07, No Iterations 1
smoothSolver:  Solving for k, Initial residual = 7.97517e-06, Final residual = 4.68029e-08, No Iterations 1
ExecutionTime = 21.39 s  ClockTime = 22 s

scalarTransport execute: age
smoothSolver:  Solving for age, Initial residual = 5.55834e-05, Final residual = 5.27893e-06, No Iterations 8

Time = 1980

smoothSolver:  Solving for Ux, Initial residual = 0.000128907, Final residual = 1.15873e-05, No Iterations 1
smoothSolver:  Solving for Uy, Initial residual = 7.86914e-05, Final residual = 4.2242e-06, No Iterations 2
GAMG:  Solving for p, Initial residual = 0.000109041, Final residual = 9.57491e-06, No Iterations 2
time step continuity errors : sum local = 2.35283e-05, global = -7.58695e-09, cumulative = 0.00745139
smoothSolver:  Solving for omega, Initial residual = 1.9919e-06, Final residual = 1.43076e-07, No Iterations 1
smoothSolver:  Solving for k, Initial residual = 6.72089e-06, Final residual = 3.76107e-08, No Iterations 1
ExecutionTime = 21.4 s  ClockTime = 22 s

scalarTransport execute: age
smoothSolver:  Solving for age, Initial residual = 5.32251e-05, Final residual = 5.0859e-06, No Iterations 10

Time = 1981

smoothSolver:  Solving for Ux, Initial residual = 9.54567e-05, Final residual = 4.29165e-06, No Iterations 2
smoothSolver:  Solving for Uy, Initial residual = 0.000160657, Final residual = 1.22778e-05, No Iterations 1
GAMG:  Solving for p, Initial residual = 0.000119286, Final residual = 8.81109e-06, No Iterations 2
time step continuity errors : sum local = 2.16513e-05, global = 4.02519e-08, cumulative = 0.00745143
smoothSolver:  Solving for omega, Initial residual = 1.6943e-06, Final residual = 1.25811e-07, No Iterations 1
smoothSolver:  Solving for k, Initial residual = 8.08066e-06, Final residual = 3.90127e-08, No Iterations 1
ExecutionTime = 21.41 s  ClockTime = 22 s

scalarTransport execute: age
smoothSolver:  Solving for age, Initial residual = 5.56727e-05, Final residual = 5.47304e-06, No Iterations 10

Time = 1982

smoothSolver:  Solving for Ux, Initial residual = 0.0005634, Final residual = 1.43929e-05, No Iterations 1
smoothSolver:  Solving for Uy, Initial residual = 0.000303717, Final residual = 1.60805e-05, No Iterations 1
GAMG:  Solving for p, Initial residual = 0.000161109, Final residual = 1.38235e-05, No Iterations 2
time step continuity errors : sum local = 3.39686e-05, global = 4.32116e-08, cumulative = 0.00745148
smoothSolver:  Solving for omega, Initial residual = 1.84988e-06, Final residual = 1.26584e-07, No Iterations 1
smoothSolver:  Solving for k, Initial residual = 1.81816e-05, Final residual = 7.91951e-08, No Iterations 1
ExecutionTime = 21.42 s  ClockTime = 22 s

scalarTransport execute: age
smoothSolver:  Solving for age, Initial residual = 6.5742e-05, Final residual = 5.77656e-06, No Iterations 10

Time = 1983

smoothSolver:  Solving for Ux, Initial residual = 0.000345222, Final residual = 1.61565e-05, No Iterations 1
smoothSolver:  Solving for Uy, Initial residual = 0.00019281, Final residual = 1.7369e-05, No Iterations 1
GAMG:  Solving for p, Initial residual = 0.000136795, Final residual = 9.41838e-06, No Iterations 2
time step continuity errors : sum local = 2.3145e-05, global = 5.90063e-08, cumulative = 0.00745154
smoothSolver:  Solving for omega, Initial residual = 1.72498e-06, Final residual = 1.09946e-07, No Iterations 1
smoothSolver:  Solving for k, Initial residual = 2.02114e-05, Final residual = 8.20175e-08, No Iterations 1
ExecutionTime = 21.43 s  ClockTime = 22 s

scalarTransport execute: age
smoothSolver:  Solving for age, Initial residual = 6.58046e-05, Final residual = 6.23174e-06, No Iterations 11

Time = 1984

smoothSolver:  Solving for Ux, Initial residual = 0.00375525, Final residual = 1.25821e-05, No Iterations 1
smoothSolver:  Solving for Uy, Initial residual = 0.000934792, Final residual = 1.49104e-05, No Iterations 1
GAMG:  Solving for p, Initial residual = 0.000174112, Final residual = 6.79464e-06, No Iterations 3
time step continuity errors : sum local = 1.66974e-05, global = -7.02596e-09, cumulative = 0.00745153
smoothSolver:  Solving for omega, Initial residual = 2.57834e-06, Final residual = 2.099e-07, No Iterations 1
smoothSolver:  Solving for k, Initial residual = 2.6426e-05, Final residual = 1.31673e-07, No Iterations 1
ExecutionTime = 21.45 s  ClockTime = 22 s

scalarTransport execute: age
smoothSolver:  Solving for age, Initial residual = 8.61827e-05, Final residual = 7.5121e-06, No Iterations 13

Time = 1985

smoothSolver:  Solving for Ux, Initial residual = 0.000157779, Final residual = 1.00481e-05, No Iterations 2
smoothSolver:  Solving for Uy, Initial residual = 0.00031862, Final residual = 2.3577e-05, No Iterations 1
GAMG:  Solving for p, Initial residual = 0.000192005, Final residual = 8.81259e-06, No Iterations 3
time step continuity errors : sum local = 2.16586e-05, global = 1.29023e-07, cumulative = 0.00745166
smoothSolver:  Solving for omega, Initial residual = 3.29512e-06, Final residual = 2.70062e-07, No Iterations 1
smoothSolver:  Solving for k, Initial residual = 2.10379e-05, Final residual = 1.00992e-07, No Iterations 1
ExecutionTime = 21.46 s  ClockTime = 22 s

scalarTransport execute: age
smoothSolver:  Solving for age, Initial residual = 9.25147e-05, Final residual = 8.10294e-06, No Iterations 13

Time = 1986

smoothSolver:  Solving for Ux, Initial residual = 0.000102743, Final residual = 6.44392e-06, No Iterations 2
smoothSolver:  Solving for Uy, Initial residual = 0.000235659, Final residual = 1.60681e-05, No Iterations 1
GAMG:  Solving for p, Initial residual = 0.000149714, Final residual = 1.29366e-05, No Iterations 2
time step continuity errors : sum local = 3.1792e-05, global = 1.23235e-07, cumulative = 0.00745178
smoothSolver:  Solving for omega, Initial residual = 2.42507e-06, Final residual = 1.89121e-07, No Iterations 1
smoothSolver:  Solving for k, Initial residual = 1.30489e-05, Final residual = 5.9324e-08, No Iterations 1
ExecutionTime = 21.47 s  ClockTime = 22 s

scalarTransport execute: age
smoothSolver:  Solving for age, Initial residual = 7.53668e-05, Final residual = 6.51315e-06, No Iterations 12

Time = 1987

smoothSolver:  Solving for Ux, Initial residual = 0.000202133, Final residual = 1.76381e-05, No Iterations 1
smoothSolver:  Solving for Uy, Initial residual = 0.000169031, Final residual = 7.76807e-06, No Iterations 2
GAMG:  Solving for p, Initial residual = 0.000178154, Final residual = 1.47379e-05, No Iterations 2
time step continuity errors : sum local = 3.62174e-05, global = 2.12076e-07, cumulative = 0.00745199
smoothSolver:  Solving for omega, Initial residual = 2.58572e-06, Final residual = 2.34432e-07, No Iterations 1
smoothSolver:  Solving for k, Initial residual = 1.31123e-05, Final residual = 8.34272e-08, No Iterations 1
ExecutionTime = 21.48 s  ClockTime = 22 s

scalarTransport execute: age
smoothSolver:  Solving for age, Initial residual = 6.38513e-05, Final residual = 5.49707e-06, No Iterations 12

Time = 1988

smoothSolver:  Solving for Ux, Initial residual = 0.00118352, Final residual = 8.28372e-07, No Iterations 1
smoothSolver:  Solving for Uy, Initial residual = 0.224346, Final residual = 1.43256e-05, No Iterations 1
GAMG:  Solving for p, Initial residual = 0.000166832, Final residual = 1.18384e-05, No Iterations 2
time step continuity errors : sum local = 2.90919e-05, global = 2.35465e-07, cumulative = 0.00745223
smoothSolver:  Solving for omega, Initial residual = 2.1162e-06, Final residual = 1.64932e-07, No Iterations 1
smoothSolver:  Solving for k, Initial residual = 2.46214e-05, Final residual = 1.0615e-07, No Iterations 1
ExecutionTime = 21.49 s  ClockTime = 22 s

scalarTransport execute: age
smoothSolver:  Solving for age, Initial residual = 6.16605e-05, Final residual = 5.84459e-06, No Iterations 10

Time = 1989

smoothSolver:  Solving for Ux, Initial residual = 0.000100388, Final residual = 6.2984e-06, No Iterations 2
smoothSolver:  Solving for Uy, Initial residual = 0.000154062, Final residual = 1.45609e-05, No Iterations 1
GAMG:  Solving for p, Initial residual = 0.00013728, Final residual = 9.87266e-06, No Iterations 2
time step continuity errors : sum local = 2.42621e-05, global = 1.64733e-07, cumulative = 0.00745239
smoothSolver:  Solving for omega, Initial residual = 2.90427e-06, Final residual = 2.35367e-07, No Iterations 1
smoothSolver:  Solving for k, Initial residual = 1.77691e-05, Final residual = 7.12746e-08, No Iterations 1
ExecutionTime = 21.5 s  ClockTime = 22 s

scalarTransport execute: age
smoothSolver:  Solving for age, Initial residual = 6.67866e-05, Final residual = 5.76691e-06, No Iterations 9

Time = 1990

smoothSolver:  Solving for Ux, Initial residual = 0.000412079, Final residual = 1.36744e-05, No Iterations 1
smoothSolver:  Solving for Uy, Initial residual = 0.00024702, Final residual = 1.51408e-05, No Iterations 1
GAMG:  Solving for p, Initial residual = 0.000148226, Final residual = 9.85568e-06, No Iterations 2
time step continuity errors : sum local = 2.42189e-05, global = 1.33473e-07, cumulative = 0.00745253
smoothSolver:  Solving for omega, Initial residual = 2.62985e-06, Final residual = 1.91576e-07, No Iterations 1
smoothSolver:  Solving for k, Initial residual = 1.5373e-05, Final residual = 1.09473e-07, No Iterations 1
ExecutionTime = 21.51 s  ClockTime = 22 s

scalarTransport execute: age
smoothSolver:  Solving for age, Initial residual = 6.2646e-05, Final residual = 5.8059e-06, No Iterations 8

Time = 1991

smoothSolver:  Solving for Ux, Initial residual = 0.000135389, Final residual = 5.42061e-06, No Iterations 2
smoothSolver:  Solving for Uy, Initial residual = 8.98819e-05, Final residual = 6.4648e-06, No Iterations 2
GAMG:  Solving for p, Initial residual = 0.000125309, Final residual = 9.44237e-06, No Iterations 2
time step continuity errors : sum local = 2.3204e-05, global = 5.25318e-08, cumulative = 0.00745258
smoothSolver:  Solving for omega, Initial residual = 2.16632e-06, Final residual = 1.64767e-07, No Iterations 1
smoothSolver:  Solving for k, Initial residual = 1.31628e-05, Final residual = 8.90182e-08, No Iterations 1
ExecutionTime = 21.52 s  ClockTime = 22 s

scalarTransport execute: age
smoothSolver:  Solving for age, Initial residual = 5.79663e-05, Final residual = 5.63689e-06, No Iterations 9

Time = 1992

smoothSolver:  Solving for Ux, Initial residual = 7.62088e-05, Final residual = 4.96723e-06, No Iterations 2
smoothSolver:  Solving for Uy, Initial residual = 8.10523e-05, Final residual = 4.99775e-06, No Iterations 2
GAMG:  Solving for p, Initial residual = 0.000105046, Final residual = 7.64858e-06, No Iterations 2
time step continuity errors : sum local = 1.87954e-05, global = -3.45717e-08, cumulative = 0.00745255
smoothSolver:  Solving for omega, Initial residual = 1.70378e-06, Final residual = 1.58902e-07, No Iterations 1
smoothSolver:  Solving for k, Initial residual = 7.35556e-06, Final residual = 5.21713e-08, No Iterations 1
ExecutionTime = 21.53 s  ClockTime = 22 s

scalarTransport execute: age
smoothSolver:  Solving for age, Initial residual = 5.04685e-05, Final residual = 4.78488e-06, No Iterations 9

Time = 1993

smoothSolver:  Solving for Ux, Initial residual = 0.00115204, Final residual = 1.23108e-05, No Iterations 1
smoothSolver:  Solving for Uy, Initial residual = 0.000215848, Final residual = 1.02868e-05, No Iterations 1
GAMG:  Solving for p, Initial residual = 0.000115172, Final residual = 1.11957e-05, No Iterations 2
time step continuity errors : sum local = 2.7512e-05, global = -1.58138e-07, cumulative = 0.00745239
smoothSolver:  Solving for omega, Initial residual = 1.99683e-06, Final residual = 1.73827e-07, No Iterations 1
smoothSolver:  Solving for k, Initial residual = 1.2337e-05, Final residual = 9.64421e-08, No Iterations 1
ExecutionTime = 21.54 s  ClockTime = 22 s

scalarTransport execute: age
smoothSolver:  Solving for age, Initial residual = 5.13676e-05, Final residual = 5.06736e-06, No Iterations 9

Time = 1994

smoothSolver:  Solving for Ux, Initial residual = 0.000230478, Final residual = 1.71846e-05, No Iterations 1
smoothSolver:  Solving for Uy, Initial residual = 0.000164003, Final residual = 1.48545e-05, No Iterations 1
GAMG:  Solving for p, Initial residual = 0.000148312, Final residual = 1.03077e-05, No Iterations 2
time step continuity errors : sum local = 2.53299e-05, global = -1.73107e-07, cumulative = 0.00745221
smoothSolver:  Solving for omega, Initial residual = 2.43906e-06, Final residual = 2.18236e-07, No Iterations 1
smoothSolver:  Solving for k, Initial residual = 1.58563e-05, Final residual = 1.26748e-07, No Iterations 1
ExecutionTime = 21.55 s  ClockTime = 22 s

scalarTransport execute: age
smoothSolver:  Solving for age, Initial residual = 5.59868e-05, Final residual = 4.89343e-06, No Iterations 9

Time = 1995

smoothSolver:  Solving for Ux, Initial residual = 0.000185601, Final residual = 1.43885e-05, No Iterations 1
smoothSolver:  Solving for Uy, Initial residual = 9.62084e-05, Final residual = 5.6318e-06, No Iterations 2
GAMG:  Solving for p, Initial residual = 0.000104012, Final residual = 8.13739e-06, No Iterations 2
time step continuity errors : sum local = 1.99966e-05, global = -1.93363e-07, cumulative = 0.00745202
smoothSolver:  Solving for omega, Initial residual = 2.1786e-06, Final residual = 5.35172e-08, No Iterations 2
smoothSolver:  Solving for k, Initial residual = 9.37559e-06, Final residual = 6.99862e-08, No Iterations 1
ExecutionTime = 21.56 s  ClockTime = 22 s

scalarTransport execute: age
smoothSolver:  Solving for age, Initial residual = 4.86995e-05, Final residual = 4.12958e-06, No Iterations 10

Time = 1996

smoothSolver:  Solving for Ux, Initial residual = 5.85962e-05, Final residual = 4.85409e-06, No Iterations 2
smoothSolver:  Solving for Uy, Initial residual = 0.000129755, Final residual = 1.20072e-05, No Iterations 1
GAMG:  Solving for p, Initial residual = 0.000119122, Final residual = 1.04961e-05, No Iterations 2
time step continuity errors : sum local = 2.57928e-05, global = -1.8382e-07, cumulative = 0.00745184
smoothSolver:  Solving for omega, Initial residual = 2.00362e-06, Final residual = 5.10552e-08, No Iterations 2
smoothSolver:  Solving for k, Initial residual = 7.1676e-06, Final residual = 4.48068e-08, No Iterations 1
ExecutionTime = 21.57 s  ClockTime = 22 s

scalarTransport execute: age
smoothSolver:  Solving for age, Initial residual = 5.21543e-05, Final residual = 4.77298e-06, No Iterations 9

Time = 1997

smoothSolver:  Solving for Ux, Initial residual = 0.000804171, Final residual = 1.07072e-05, No Iterations 1
smoothSolver:  Solving for Uy, Initial residual = 0.000113529, Final residual = 9.53924e-06, No Iterations 1
GAMG:  Solving for p, Initial residual = 0.000108161, Final residual = 1.06376e-05, No Iterations 2
time step continuity errors : sum local = 2.61403e-05, global = -1.69904e-07, cumulative = 0.00745167
smoothSolver:  Solving for omega, Initial residual = 1.60495e-06, Final residual = 1.17911e-07, No Iterations 1
smoothSolver:  Solving for k, Initial residual = 1.13517e-05, Final residual = 6.44554e-08, No Iterations 1
ExecutionTime = 21.58 s  ClockTime = 22 s

scalarTransport execute: age
smoothSolver:  Solving for age, Initial residual = 6.27018e-05, Final residual = 6.06194e-06, No Iterations 11

Time = 1998

smoothSolver:  Solving for Ux, Initial residual = 0.00285261, Final residual = 1.05115e-05, No Iterations 1
smoothSolver:  Solving for Uy, Initial residual = 0.000175788, Final residual = 1.44289e-05, No Iterations 1
GAMG:  Solving for p, Initial residual = 0.000129495, Final residual = 1.11483e-05, No Iterations 2
time step continuity errors : sum local = 2.73961e-05, global = -1.4106e-07, cumulative = 0.00745153
smoothSolver:  Solving for omega, Initial residual = 1.71404e-06, Final residual = 1.51536e-07, No Iterations 1
smoothSolver:  Solving for k, Initial residual = 1.58055e-05, Final residual = 8.5541e-08, No Iterations 1
ExecutionTime = 21.59 s  ClockTime = 22 s

scalarTransport execute: age
smoothSolver:  Solving for age, Initial residual = 6.4395e-05, Final residual = 5.98133e-06, No Iterations 13

Time = 1999

smoothSolver:  Solving for Ux, Initial residual = 0.000129444, Final residual = 6.34119e-06, No Iterations 2
smoothSolver:  Solving for Uy, Initial residual = 0.000116129, Final residual = 6.26232e-06, No Iterations 2
GAMG:  Solving for p, Initial residual = 0.000163788, Final residual = 1.56467e-05, No Iterations 2
time step continuity errors : sum local = 3.84512e-05, global = -1.01657e-07, cumulative = 0.00745143
smoothSolver:  Solving for omega, Initial residual = 2.15154e-06, Final residual = 1.74535e-07, No Iterations 1
smoothSolver:  Solving for k, Initial residual = 1.31546e-05, Final residual = 7.95959e-08, No Iterations 1
ExecutionTime = 21.61 s  ClockTime = 22 s

scalarTransport execute: age
smoothSolver:  Solving for age, Initial residual = 6.6712e-05, Final residual = 6.13275e-06, No Iterations 11

Time = 2000

smoothSolver:  Solving for Ux, Initial residual = 0.000151813, Final residual = 6.04239e-06, No Iterations 2
smoothSolver:  Solving for Uy, Initial residual = 0.000197281, Final residual = 1.51945e-05, No Iterations 1
GAMG:  Solving for p, Initial residual = 0.000166266, Final residual = 1.32751e-05, No Iterations 2
time step continuity errors : sum local = 3.26222e-05, global = -2.9415e-08, cumulative = 0.0074514
smoothSolver:  Solving for omega, Initial residual = 2.27882e-06, Final residual = 1.77885e-07, No Iterations 1
smoothSolver:  Solving for k, Initial residual = 1.15763e-05, Final residual = 6.5961e-08, No Iterations 1
ExecutionTime = 21.64 s  ClockTime = 22 s

scalarTransport execute: age
smoothSolver:  Solving for age, Initial residual = 6.6274e-05, Final residual = 6.27424e-06, No Iterations 9

End

