/*---------------------------------------------------------------------------*\
| =========                 |                                                 |
| \\      /  F ield         | OpenFOAM: The Open Source CFD Toolbox           |
|  \\    /   O peration     | Version:  v2012                                 |
|   \\  /    A nd           | Website:  www.openfoam.com                      |
|    \\/     M anipulation  |                                                 |
\*---------------------------------------------------------------------------*/
Build  : _7bdb509494-20201222 OPENFOAM=2012
Arch   : "LSB;label=32;scalar=64"
Exec   : simpleFoam
Date   : Feb 22 2023
Time   : 17:13:07
Host   : johnsDesktop
PID    : 5278
I/O    : uncollated
Case   : /home/john/of_runs/cases/0_1_4-00520_9
nProcs : 1
trapFpe: Floating point exception trapping enabled (FOAM_SIGFPE).
fileModificationChecking : Monitoring run-time modified files using timeStampMaster (fileModificationSkew 5, maxFileModificationPolls 20)
allowSystemOperations : Allowing user-supplied system call operations

// * * * * * * * * * * * * * * * * * * * * * * * * * * * * * * * * * * * * * //
Create time

Create mesh for time = 0


SIMPLE: convergence criteria
    field p	 tolerance 1e-06
    field U	 tolerance 1e-06
    field "(k|epsilon|omega|f|v2|age)"	 tolerance 1e-05

Reading field p

Reading field U

Reading/calculating face flux field phi

Selecting incompressible transport model Newtonian
Selecting turbulence model type RAS
Selecting RAS turbulence model kOmegaSST
Selecting patchDistMethod meshWave
RAS
{
    RASModel        kOmegaSST;
    turbulence      on;
    printCoeffs     on;
    alphaK1         0.85;
    alphaK2         1;
    alphaOmega1     0.5;
    alphaOmega2     0.856;
    gamma1          0.555556;
    gamma2          0.44;
    beta1           0.075;
    beta2           0.0828;
    betaStar        0.09;
    a1              0.31;
    b1              1;
    c1              10;
    F3              false;
    decayControl    false;
    kInf            0;
    omegaInf        0;
}

No MRF models present

No finite volume options present

Starting time loop

Selecting finite volume options type scalarSemiImplicitSource
    Source: unitySource
    - selecting all cells
    - selected 6108 cell(s) with volume 0.03195
Time = 1

smoothSolver:  Solving for Ux, Initial residual = 0, Final residual = 0, No Iterations 0
smoothSolver:  Solving for Uy, Initial residual = 1, Final residual = 0.0868274, No Iterations 2
GAMG:  Solving for p, Initial residual = 1, Final residual = 0.0639664, No Iterations 11
time step continuity errors : sum local = 0.00400416, global = -0.000468223, cumulative = -0.000468223
smoothSolver:  Solving for omega, Initial residual = 0.295498, Final residual = 0.012552, No Iterations 3
smoothSolver:  Solving for k, Initial residual = 1, Final residual = 0.0815985, No Iterations 3
ExecutionTime = 0.06 s  ClockTime = 1 s

scalarTransport execute: age
smoothSolver:  Solving for age, Initial residual = 1, Final residual = 0.0998404, No Iterations 3

Time = 2

smoothSolver:  Solving for Ux, Initial residual = 0.576396, Final residual = 0.0499729, No Iterations 6
smoothSolver:  Solving for Uy, Initial residual = 0.278185, Final residual = 0.0202431, No Iterations 6
GAMG:  Solving for p, Initial residual = 0.0443112, Final residual = 0.00397519, No Iterations 4
time step continuity errors : sum local = 0.044097, global = 0.00552247, cumulative = 0.00505424
smoothSolver:  Solving for omega, Initial residual = 0.263858, Final residual = 0.0138674, No Iterations 4
smoothSolver:  Solving for k, Initial residual = 0.612393, Final residual = 0.0591279, No Iterations 4
ExecutionTime = 0.08 s  ClockTime = 1 s

scalarTransport execute: age
smoothSolver:  Solving for age, Initial residual = 0.578572, Final residual = 0.0507161, No Iterations 19

Time = 3

smoothSolver:  Solving for Ux, Initial residual = 0.24337, Final residual = 0.0185005, No Iterations 6
smoothSolver:  Solving for Uy, Initial residual = 0.0981587, Final residual = 0.00915571, No Iterations 5
GAMG:  Solving for p, Initial residual = 0.0543996, Final residual = 0.00340166, No Iterations 5
time step continuity errors : sum local = 0.0166426, global = 0.00201051, cumulative = 0.00706475
smoothSolver:  Solving for omega, Initial residual = 0.241184, Final residual = 0.0139885, No Iterations 5
smoothSolver:  Solving for k, Initial residual = 0.517054, Final residual = 0.0405293, No Iterations 5
ExecutionTime = 0.09 s  ClockTime = 1 s

scalarTransport execute: age
smoothSolver:  Solving for age, Initial residual = 0.196955, Final residual = 0.0195447, No Iterations 14

Time = 4

smoothSolver:  Solving for Ux, Initial residual = 0.119808, Final residual = 0.0105044, No Iterations 3
smoothSolver:  Solving for Uy, Initial residual = 0.0509242, Final residual = 0.00367889, No Iterations 5
GAMG:  Solving for p, Initial residual = 0.0855881, Final residual = 0.00647808, No Iterations 3
time step continuity errors : sum local = 0.0154829, global = 0.00102985, cumulative = 0.00809461
smoothSolver:  Solving for omega, Initial residual = 0.136426, Final residual = 0.0098313, No Iterations 5
smoothSolver:  Solving for k, Initial residual = 0.447496, Final residual = 0.0391925, No Iterations 5
ExecutionTime = 0.1 s  ClockTime = 1 s

scalarTransport execute: age
smoothSolver:  Solving for age, Initial residual = 0.158352, Final residual = 0.0135236, No Iterations 8

Time = 5

smoothSolver:  Solving for Ux, Initial residual = 0.0958054, Final residual = 0.00889933, No Iterations 5
smoothSolver:  Solving for Uy, Initial residual = 0.0335532, Final residual = 0.00261364, No Iterations 5
GAMG:  Solving for p, Initial residual = 0.0825536, Final residual = 0.00350479, No Iterations 2
time step continuity errors : sum local = 0.00694915, global = 0.000935811, cumulative = 0.00903042
smoothSolver:  Solving for omega, Initial residual = 0.0955298, Final residual = 0.00753351, No Iterations 5
smoothSolver:  Solving for k, Initial residual = 0.35968, Final residual = 0.0337107, No Iterations 5
ExecutionTime = 0.11 s  ClockTime = 1 s

scalarTransport execute: age
smoothSolver:  Solving for age, Initial residual = 0.147747, Final residual = 0.0132314, No Iterations 4

Time = 6

smoothSolver:  Solving for Ux, Initial residual = 0.0783672, Final residual = 0.00614495, No Iterations 6
smoothSolver:  Solving for Uy, Initial residual = 0.0267978, Final residual = 0.00223541, No Iterations 5
GAMG:  Solving for p, Initial residual = 0.0646696, Final residual = 0.00437192, No Iterations 2
time step continuity errors : sum local = 0.00890743, global = 0.000234101, cumulative = 0.00926452
smoothSolver:  Solving for omega, Initial residual = 0.0777309, Final residual = 0.00647537, No Iterations 5
smoothSolver:  Solving for k, Initial residual = 0.287373, Final residual = 0.0284997, No Iterations 5
ExecutionTime = 0.13 s  ClockTime = 1 s

scalarTransport execute: age
smoothSolver:  Solving for age, Initial residual = 0.125883, Final residual = 0.00932966, No Iterations 5

Time = 7

smoothSolver:  Solving for Ux, Initial residual = 0.0688931, Final residual = 0.00549, No Iterations 6
smoothSolver:  Solving for Uy, Initial residual = 0.0227044, Final residual = 0.00204494, No Iterations 5
GAMG:  Solving for p, Initial residual = 0.0527172, Final residual = 0.00423559, No Iterations 3
time step continuity errors : sum local = 0.0087872, global = -0.000674597, cumulative = 0.00858992
smoothSolver:  Solving for omega, Initial residual = 0.0593138, Final residual = 0.00528915, No Iterations 5
smoothSolver:  Solving for k, Initial residual = 0.238087, Final residual = 0.0155963, No Iterations 6
ExecutionTime = 0.14 s  ClockTime = 1 s

scalarTransport execute: age
smoothSolver:  Solving for age, Initial residual = 0.117822, Final residual = 0.00764383, No Iterations 4

Time = 8

smoothSolver:  Solving for Ux, Initial residual = 0.0447365, Final residual = 0.00403767, No Iterations 5
smoothSolver:  Solving for Uy, Initial residual = 0.020834, Final residual = 0.00194828, No Iterations 5
GAMG:  Solving for p, Initial residual = 0.0418323, Final residual = 0.002006, No Iterations 3
time step continuity errors : sum local = 0.00470543, global = -0.000464395, cumulative = 0.00812553
smoothSolver:  Solving for omega, Initial residual = 0.0483479, Final residual = 0.00444918, No Iterations 5
smoothSolver:  Solving for k, Initial residual = 0.202899, Final residual = 0.0137342, No Iterations 6
ExecutionTime = 0.15 s  ClockTime = 1 s

scalarTransport execute: age
smoothSolver:  Solving for age, Initial residual = 0.108215, Final residual = 0.00921597, No Iterations 3

Time = 9

smoothSolver:  Solving for Ux, Initial residual = 0.0357563, Final residual = 0.00334378, No Iterations 5
smoothSolver:  Solving for Uy, Initial residual = 0.0179406, Final residual = 0.00162929, No Iterations 5
GAMG:  Solving for p, Initial residual = 0.0335811, Final residual = 0.00214781, No Iterations 2
time step continuity errors : sum local = 0.00545545, global = -0.000557987, cumulative = 0.00756754
smoothSolver:  Solving for omega, Initial residual = 0.0406901, Final residual = 0.00383455, No Iterations 5
smoothSolver:  Solving for k, Initial residual = 0.175832, Final residual = 0.0122451, No Iterations 6
ExecutionTime = 0.16 s  ClockTime = 1 s

scalarTransport execute: age
smoothSolver:  Solving for age, Initial residual = 0.0975641, Final residual = 0.00790946, No Iterations 3

Time = 10

smoothSolver:  Solving for Ux, Initial residual = 0.0335518, Final residual = 0.00224402, No Iterations 6
smoothSolver:  Solving for Uy, Initial residual = 0.0183674, Final residual = 0.00166867, No Iterations 5
GAMG:  Solving for p, Initial residual = 0.0289898, Final residual = 0.00109754, No Iterations 2
time step continuity errors : sum local = 0.00289504, global = -0.000495611, cumulative = 0.00707193
smoothSolver:  Solving for omega, Initial residual = 0.0339434, Final residual = 0.00329476, No Iterations 5
smoothSolver:  Solving for k, Initial residual = 0.154959, Final residual = 0.0110316, No Iterations 6
ExecutionTime = 0.17 s  ClockTime = 1 s

scalarTransport execute: age
smoothSolver:  Solving for age, Initial residual = 0.0941868, Final residual = 0.00577545, No Iterations 3

Time = 11

smoothSolver:  Solving for Ux, Initial residual = 0.0311153, Final residual = 0.00214624, No Iterations 6
smoothSolver:  Solving for Uy, Initial residual = 0.0165193, Final residual = 0.0015387, No Iterations 5
GAMG:  Solving for p, Initial residual = 0.0245181, Final residual = 0.000908248, No Iterations 2
time step continuity errors : sum local = 0.00243061, global = -0.000388216, cumulative = 0.00668371
smoothSolver:  Solving for omega, Initial residual = 0.0289403, Final residual = 0.00285903, No Iterations 5
smoothSolver:  Solving for k, Initial residual = 0.13822, Final residual = 0.0100222, No Iterations 6
ExecutionTime = 0.18 s  ClockTime = 1 s

scalarTransport execute: age
smoothSolver:  Solving for age, Initial residual = 0.0858163, Final residual = 0.00416879, No Iterations 3

Time = 12

smoothSolver:  Solving for Ux, Initial residual = 0.0297748, Final residual = 0.00208513, No Iterations 6
smoothSolver:  Solving for Uy, Initial residual = 0.0159699, Final residual = 0.00154124, No Iterations 5
GAMG:  Solving for p, Initial residual = 0.0214982, Final residual = 0.000917918, No Iterations 2
time step continuity errors : sum local = 0.00248656, global = -0.000277441, cumulative = 0.00640627
smoothSolver:  Solving for omega, Initial residual = 0.0248529, Final residual = 0.0015934, No Iterations 6
smoothSolver:  Solving for k, Initial residual = 0.124193, Final residual = 0.0091507, No Iterations 6
ExecutionTime = 0.2 s  ClockTime = 1 s

scalarTransport execute: age
smoothSolver:  Solving for age, Initial residual = 0.0775444, Final residual = 0.00703751, No Iterations 2

Time = 13

smoothSolver:  Solving for Ux, Initial residual = 0.0286631, Final residual = 0.00202077, No Iterations 6
smoothSolver:  Solving for Uy, Initial residual = 0.0157385, Final residual = 0.0010368, No Iterations 6
GAMG:  Solving for p, Initial residual = 0.019857, Final residual = 0.000946672, No Iterations 2
time step continuity errors : sum local = 0.00258229, global = -0.000178135, cumulative = 0.00622814
smoothSolver:  Solving for omega, Initial residual = 0.021346, Final residual = 0.00139288, No Iterations 6
smoothSolver:  Solving for k, Initial residual = 0.112388, Final residual = 0.00839794, No Iterations 6
ExecutionTime = 0.21 s  ClockTime = 1 s

scalarTransport execute: age
smoothSolver:  Solving for age, Initial residual = 0.069544, Final residual = 0.00659149, No Iterations 2

Time = 14

smoothSolver:  Solving for Ux, Initial residual = 0.027698, Final residual = 0.00197199, No Iterations 6
smoothSolver:  Solving for Uy, Initial residual = 0.0153726, Final residual = 0.00103887, No Iterations 6
GAMG:  Solving for p, Initial residual = 0.0187369, Final residual = 0.000927912, No Iterations 2
time step continuity errors : sum local = 0.00253901, global = -7.26877e-05, cumulative = 0.00615545
smoothSolver:  Solving for omega, Initial residual = 0.0185242, Final residual = 0.00122646, No Iterations 6
smoothSolver:  Solving for k, Initial residual = 0.102511, Final residual = 0.00775047, No Iterations 6
ExecutionTime = 0.22 s  ClockTime = 1 s

scalarTransport execute: age
smoothSolver:  Solving for age, Initial residual = 0.0628481, Final residual = 0.00610742, No Iterations 2

Time = 15

smoothSolver:  Solving for Ux, Initial residual = 0.0269072, Final residual = 0.00192662, No Iterations 6
smoothSolver:  Solving for Uy, Initial residual = 0.0151874, Final residual = 0.00104027, No Iterations 6
GAMG:  Solving for p, Initial residual = 0.0177203, Final residual = 0.000863418, No Iterations 2
time step continuity errors : sum local = 0.00236898, global = 2.46187e-05, cumulative = 0.00618007
smoothSolver:  Solving for omega, Initial residual = 0.0162455, Final residual = 0.00108794, No Iterations 6
smoothSolver:  Solving for k, Initial residual = 0.094101, Final residual = 0.00718606, No Iterations 6
ExecutionTime = 0.23 s  ClockTime = 1 s

scalarTransport execute: age
smoothSolver:  Solving for age, Initial residual = 0.0562421, Final residual = 0.00295089, No Iterations 3

Time = 16

smoothSolver:  Solving for Ux, Initial residual = 0.0261063, Final residual = 0.00187887, No Iterations 6
smoothSolver:  Solving for Uy, Initial residual = 0.0149328, Final residual = 0.00103465, No Iterations 6
GAMG:  Solving for p, Initial residual = 0.0169956, Final residual = 0.000806265, No Iterations 2
time step continuity errors : sum local = 0.00221463, global = 0.000114335, cumulative = 0.0062944
smoothSolver:  Solving for omega, Initial residual = 0.014356, Final residual = 0.000970941, No Iterations 6
smoothSolver:  Solving for k, Initial residual = 0.0868586, Final residual = 0.00668991, No Iterations 6
ExecutionTime = 0.24 s  ClockTime = 1 s

scalarTransport execute: age
smoothSolver:  Solving for age, Initial residual = 0.0497663, Final residual = 0.00490908, No Iterations 2

Time = 17

smoothSolver:  Solving for Ux, Initial residual = 0.0253778, Final residual = 0.00183222, No Iterations 6
smoothSolver:  Solving for Uy, Initial residual = 0.0147538, Final residual = 0.00102587, No Iterations 6
GAMG:  Solving for p, Initial residual = 0.016257, Final residual = 0.000763682, No Iterations 2
time step continuity errors : sum local = 0.00209645, global = 0.000177503, cumulative = 0.0064719
smoothSolver:  Solving for omega, Initial residual = 0.0127923, Final residual = 0.000871541, No Iterations 6
smoothSolver:  Solving for k, Initial residual = 0.0805713, Final residual = 0.00625143, No Iterations 6
ExecutionTime = 0.25 s  ClockTime = 1 s

scalarTransport execute: age
smoothSolver:  Solving for age, Initial residual = 0.0445379, Final residual = 0.00262774, No Iterations 3

Time = 18

smoothSolver:  Solving for Ux, Initial residual = 0.0246783, Final residual = 0.00179174, No Iterations 6
smoothSolver:  Solving for Uy, Initial residual = 0.0145591, Final residual = 0.00101403, No Iterations 6
GAMG:  Solving for p, Initial residual = 0.0156817, Final residual = 0.000729182, No Iterations 2
time step continuity errors : sum local = 0.00199641, global = 0.000220366, cumulative = 0.00669227
smoothSolver:  Solving for omega, Initial residual = 0.0114798, Final residual = 0.0007866, No Iterations 6
smoothSolver:  Solving for k, Initial residual = 0.0750693, Final residual = 0.00586154, No Iterations 6
ExecutionTime = 0.27 s  ClockTime = 1 s

scalarTransport execute: age
smoothSolver:  Solving for age, Initial residual = 0.0391019, Final residual = 0.00238349, No Iterations 3

Time = 19

smoothSolver:  Solving for Ux, Initial residual = 0.0240395, Final residual = 0.00175591, No Iterations 6
smoothSolver:  Solving for Uy, Initial residual = 0.0143516, Final residual = 0.0010005, No Iterations 6
GAMG:  Solving for p, Initial residual = 0.0152135, Final residual = 0.000714354, No Iterations 2
time step continuity errors : sum local = 0.00194763, global = 0.00024515, cumulative = 0.00693742
smoothSolver:  Solving for omega, Initial residual = 0.0103645, Final residual = 0.000713383, No Iterations 6
smoothSolver:  Solving for k, Initial residual = 0.070218, Final residual = 0.00551321, No Iterations 6
ExecutionTime = 0.28 s  ClockTime = 1 s

scalarTransport execute: age
smoothSolver:  Solving for age, Initial residual = 0.0349763, Final residual = 0.00222318, No Iterations 3

Time = 20

smoothSolver:  Solving for Ux, Initial residual = 0.023502, Final residual = 0.00172455, No Iterations 6
smoothSolver:  Solving for Uy, Initial residual = 0.0141315, Final residual = 0.000988118, No Iterations 6
GAMG:  Solving for p, Initial residual = 0.0147603, Final residual = 0.000714327, No Iterations 2
time step continuity errors : sum local = 0.00193731, global = 0.000255061, cumulative = 0.00719248
smoothSolver:  Solving for omega, Initial residual = 0.009407, Final residual = 0.000649764, No Iterations 6
smoothSolver:  Solving for k, Initial residual = 0.06592, Final residual = 0.00520078, No Iterations 6
ExecutionTime = 0.29 s  ClockTime = 1 s

scalarTransport execute: age
smoothSolver:  Solving for age, Initial residual = 0.0314115, Final residual = 0.0021289, No Iterations 3

Time = 21

smoothSolver:  Solving for Ux, Initial residual = 0.023025, Final residual = 0.00169705, No Iterations 6
smoothSolver:  Solving for Uy, Initial residual = 0.0139012, Final residual = 0.000977002, No Iterations 6
GAMG:  Solving for p, Initial residual = 0.0143631, Final residual = 0.000724638, No Iterations 2
time step continuity errors : sum local = 0.00194907, global = 0.000253069, cumulative = 0.00744555
smoothSolver:  Solving for omega, Initial residual = 0.0085793, Final residual = 0.00059415, No Iterations 6
smoothSolver:  Solving for k, Initial residual = 0.0620898, Final residual = 0.00491909, No Iterations 6
ExecutionTime = 0.3 s  ClockTime = 1 s

scalarTransport execute: age
smoothSolver:  Solving for age, Initial residual = 0.0282699, Final residual = 0.00204548, No Iterations 3

Time = 22

smoothSolver:  Solving for Ux, Initial residual = 0.0226005, Final residual = 0.00167237, No Iterations 6
smoothSolver:  Solving for Uy, Initial residual = 0.0136529, Final residual = 0.00096441, No Iterations 6
GAMG:  Solving for p, Initial residual = 0.0139017, Final residual = 0.000739398, No Iterations 2
time step continuity errors : sum local = 0.00197115, global = 0.000245069, cumulative = 0.00769062
smoothSolver:  Solving for omega, Initial residual = 0.00785555, Final residual = 0.000545266, No Iterations 6
smoothSolver:  Solving for k, Initial residual = 0.0586527, Final residual = 0.00466389, No Iterations 6
ExecutionTime = 0.31 s  ClockTime = 1 s

scalarTransport execute: age
smoothSolver:  Solving for age, Initial residual = 0.0257358, Final residual = 0.00200281, No Iterations 3

Time = 23

smoothSolver:  Solving for Ux, Initial residual = 0.0222156, Final residual = 0.00165016, No Iterations 6
smoothSolver:  Solving for Uy, Initial residual = 0.0134174, Final residual = 0.000951517, No Iterations 6
GAMG:  Solving for p, Initial residual = 0.0133588, Final residual = 0.000757994, No Iterations 2
time step continuity errors : sum local = 0.00200526, global = 0.000235517, cumulative = 0.00792614
smoothSolver:  Solving for omega, Initial residual = 0.00722169, Final residual = 0.000502108, No Iterations 6
smoothSolver:  Solving for k, Initial residual = 0.0555537, Final residual = 0.00443182, No Iterations 6
ExecutionTime = 0.32 s  ClockTime = 1 s

scalarTransport execute: age
smoothSolver:  Solving for age, Initial residual = 0.0237152, Final residual = 0.00201381, No Iterations 3

Time = 24

smoothSolver:  Solving for Ux, Initial residual = 0.0218829, Final residual = 0.00162977, No Iterations 6
smoothSolver:  Solving for Uy, Initial residual = 0.0131717, Final residual = 0.00093796, No Iterations 6
GAMG:  Solving for p, Initial residual = 0.0128168, Final residual = 0.000770234, No Iterations 2
time step continuity errors : sum local = 0.00202579, global = 0.000221934, cumulative = 0.00814807
smoothSolver:  Solving for omega, Initial residual = 0.00666165, Final residual = 0.000463842, No Iterations 6
smoothSolver:  Solving for k, Initial residual = 0.0527464, Final residual = 0.00421992, No Iterations 6
ExecutionTime = 0.33 s  ClockTime = 1 s

scalarTransport execute: age
smoothSolver:  Solving for age, Initial residual = 0.0221144, Final residual = 0.00211949, No Iterations 3

Time = 25

smoothSolver:  Solving for Ux, Initial residual = 0.0215443, Final residual = 0.00161172, No Iterations 6
smoothSolver:  Solving for Uy, Initial residual = 0.0129098, Final residual = 0.000923108, No Iterations 6
GAMG:  Solving for p, Initial residual = 0.0122206, Final residual = 0.000777848, No Iterations 2
time step continuity errors : sum local = 0.00203558, global = 0.000206935, cumulative = 0.00835501
smoothSolver:  Solving for omega, Initial residual = 0.00616321, Final residual = 0.000429725, No Iterations 6
smoothSolver:  Solving for k, Initial residual = 0.050189, Final residual = 0.00402534, No Iterations 6
ExecutionTime = 0.35 s  ClockTime = 1 s

scalarTransport execute: age
smoothSolver:  Solving for age, Initial residual = 0.0207811, Final residual = 0.00169292, No Iterations 4

Time = 26

smoothSolver:  Solving for Ux, Initial residual = 0.0212402, Final residual = 0.00159575, No Iterations 6
smoothSolver:  Solving for Uy, Initial residual = 0.0126699, Final residual = 0.000908024, No Iterations 6
GAMG:  Solving for p, Initial residual = 0.0116857, Final residual = 0.00077873, No Iterations 2
time step continuity errors : sum local = 0.00202834, global = 0.000191273, cumulative = 0.00854628
smoothSolver:  Solving for omega, Initial residual = 0.00572093, Final residual = 0.000399251, No Iterations 6
smoothSolver:  Solving for k, Initial residual = 0.0478508, Final residual = 0.00384615, No Iterations 6
ExecutionTime = 0.36 s  ClockTime = 1 s

scalarTransport execute: age
smoothSolver:  Solving for age, Initial residual = 0.0197432, Final residual = 0.00168419, No Iterations 4

Time = 27

smoothSolver:  Solving for Ux, Initial residual = 0.0209656, Final residual = 0.00158135, No Iterations 6
smoothSolver:  Solving for Uy, Initial residual = 0.0124548, Final residual = 0.000892858, No Iterations 6
GAMG:  Solving for p, Initial residual = 0.0113873, Final residual = 0.000769662, No Iterations 2
time step continuity errors : sum local = 0.00199754, global = 0.000176657, cumulative = 0.00872294
smoothSolver:  Solving for omega, Initial residual = 0.00532487, Final residual = 0.000372044, No Iterations 6
smoothSolver:  Solving for k, Initial residual = 0.0457023, Final residual = 0.00368035, No Iterations 6
ExecutionTime = 0.37 s  ClockTime = 1 s

scalarTransport execute: age
smoothSolver:  Solving for age, Initial residual = 0.0189267, Final residual = 0.00172221, No Iterations 4

Time = 28

smoothSolver:  Solving for Ux, Initial residual = 0.0207068, Final residual = 0.0015691, No Iterations 6
smoothSolver:  Solving for Uy, Initial residual = 0.0122581, Final residual = 0.000877189, No Iterations 6
GAMG:  Solving for p, Initial residual = 0.0114384, Final residual = 0.000753235, No Iterations 2
time step continuity errors : sum local = 0.00194728, global = 0.000161098, cumulative = 0.00888403
smoothSolver:  Solving for omega, Initial residual = 0.00497399, Final residual = 0.000347736, No Iterations 6
smoothSolver:  Solving for k, Initial residual = 0.0437213, Final residual = 0.00352652, No Iterations 6
ExecutionTime = 0.38 s  ClockTime = 1 s

scalarTransport execute: age
smoothSolver:  Solving for age, Initial residual = 0.0185878, Final residual = 0.00182093, No Iterations 4

Time = 29

smoothSolver:  Solving for Ux, Initial residual = 0.0205, Final residual = 0.0015594, No Iterations 6
smoothSolver:  Solving for Uy, Initial residual = 0.0120751, Final residual = 0.000861637, No Iterations 6
GAMG:  Solving for p, Initial residual = 0.0117162, Final residual = 0.000737228, No Iterations 2
time step continuity errors : sum local = 0.00189974, global = 0.000149332, cumulative = 0.00903337
smoothSolver:  Solving for omega, Initial residual = 0.00466216, Final residual = 0.000325727, No Iterations 6
smoothSolver:  Solving for k, Initial residual = 0.0418869, Final residual = 0.00338332, No Iterations 6
ExecutionTime = 0.39 s  ClockTime = 1 s

scalarTransport execute: age
smoothSolver:  Solving for age, Initial residual = 0.0186294, Final residual = 0.0015137, No Iterations 5

Time = 30

smoothSolver:  Solving for Ux, Initial residual = 0.0203804, Final residual = 0.00155257, No Iterations 6
smoothSolver:  Solving for Uy, Initial residual = 0.0118844, Final residual = 0.00084564, No Iterations 6
GAMG:  Solving for p, Initial residual = 0.0120439, Final residual = 0.000731256, No Iterations 2
time step continuity errors : sum local = 0.00187654, global = 0.000141937, cumulative = 0.0091753
smoothSolver:  Solving for omega, Initial residual = 0.00438071, Final residual = 0.000305645, No Iterations 6
smoothSolver:  Solving for k, Initial residual = 0.0401739, Final residual = 0.00324904, No Iterations 6
ExecutionTime = 0.41 s  ClockTime = 1 s

scalarTransport execute: age
smoothSolver:  Solving for age, Initial residual = 0.0184473, Final residual = 0.00150445, No Iterations 5

Time = 31

smoothSolver:  Solving for Ux, Initial residual = 0.0203156, Final residual = 0.00154802, No Iterations 6
smoothSolver:  Solving for Uy, Initial residual = 0.0116719, Final residual = 0.000828731, No Iterations 6
GAMG:  Solving for p, Initial residual = 0.0122124, Final residual = 0.000751495, No Iterations 2
time step continuity errors : sum local = 0.00191765, global = 0.000138572, cumulative = 0.00931388
smoothSolver:  Solving for omega, Initial residual = 0.00412562, Final residual = 0.000287246, No Iterations 6
smoothSolver:  Solving for k, Initial residual = 0.0385743, Final residual = 0.00312304, No Iterations 6
ExecutionTime = 0.42 s  ClockTime = 1 s

scalarTransport execute: age
smoothSolver:  Solving for age, Initial residual = 0.0182965, Final residual = 0.00154672, No Iterations 5

Time = 32

smoothSolver:  Solving for Ux, Initial residual = 0.0202737, Final residual = 0.00154302, No Iterations 6
smoothSolver:  Solving for Uy, Initial residual = 0.0114168, Final residual = 0.000809771, No Iterations 6
GAMG:  Solving for p, Initial residual = 0.012148, Final residual = 0.000776035, No Iterations 2
time step continuity errors : sum local = 0.00197081, global = 0.000136108, cumulative = 0.00944998
smoothSolver:  Solving for omega, Initial residual = 0.0038892, Final residual = 0.000270324, No Iterations 6
smoothSolver:  Solving for k, Initial residual = 0.0370793, Final residual = 0.00300473, No Iterations 6
ExecutionTime = 0.43 s  ClockTime = 1 s

scalarTransport execute: age
smoothSolver:  Solving for age, Initial residual = 0.0181304, Final residual = 0.00160745, No Iterations 5

Time = 33

smoothSolver:  Solving for Ux, Initial residual = 0.0202412, Final residual = 0.00153959, No Iterations 6
smoothSolver:  Solving for Uy, Initial residual = 0.011107, Final residual = 0.00078865, No Iterations 6
GAMG:  Solving for p, Initial residual = 0.011806, Final residual = 0.000784898, No Iterations 2
time step continuity errors : sum local = 0.00198527, global = 0.00013328, cumulative = 0.00958326
smoothSolver:  Solving for omega, Initial residual = 0.00367393, Final residual = 0.000254694, No Iterations 6
smoothSolver:  Solving for k, Initial residual = 0.0356769, Final residual = 0.00289351, No Iterations 6
ExecutionTime = 0.44 s  ClockTime = 1 s

scalarTransport execute: age
smoothSolver:  Solving for age, Initial residual = 0.0180794, Final residual = 0.00171442, No Iterations 5

Time = 34

smoothSolver:  Solving for Ux, Initial residual = 0.0201997, Final residual = 0.00153438, No Iterations 6
smoothSolver:  Solving for Uy, Initial residual = 0.0107621, Final residual = 0.000765663, No Iterations 6
GAMG:  Solving for p, Initial residual = 0.0112831, Final residual = 0.000775567, No Iterations 2
time step continuity errors : sum local = 0.00195506, global = 0.000129224, cumulative = 0.00971249
smoothSolver:  Solving for omega, Initial residual = 0.00347663, Final residual = 0.000240196, No Iterations 6
smoothSolver:  Solving for k, Initial residual = 0.03436, Final residual = 0.002789, No Iterations 6
ExecutionTime = 0.45 s  ClockTime = 1 s

scalarTransport execute: age
smoothSolver:  Solving for age, Initial residual = 0.0180331, Final residual = 0.00143479, No Iterations 6

Time = 35

smoothSolver:  Solving for Ux, Initial residual = 0.0201451, Final residual = 0.00152913, No Iterations 6
smoothSolver:  Solving for Uy, Initial residual = 0.0103903, Final residual = 0.000741868, No Iterations 6
GAMG:  Solving for p, Initial residual = 0.0107107, Final residual = 0.000761313, No Iterations 2
time step continuity errors : sum local = 0.00191404, global = 0.000119948, cumulative = 0.00983244
smoothSolver:  Solving for omega, Initial residual = 0.00329386, Final residual = 0.000226727, No Iterations 6
smoothSolver:  Solving for k, Initial residual = 0.0331224, Final residual = 0.00269085, No Iterations 6
ExecutionTime = 0.46 s  ClockTime = 1 s

scalarTransport execute: age
smoothSolver:  Solving for age, Initial residual = 0.0178569, Final residual = 0.00145243, No Iterations 6

Time = 36

smoothSolver:  Solving for Ux, Initial residual = 0.0200648, Final residual = 0.00152269, No Iterations 6
smoothSolver:  Solving for Uy, Initial residual = 0.0100122, Final residual = 0.00071878, No Iterations 6
GAMG:  Solving for p, Initial residual = 0.0102237, Final residual = 0.000759302, No Iterations 2
time step continuity errors : sum local = 0.00190646, global = 0.000109117, cumulative = 0.00994155
smoothSolver:  Solving for omega, Initial residual = 0.00312262, Final residual = 0.000214171, No Iterations 6
smoothSolver:  Solving for k, Initial residual = 0.0319579, Final residual = 0.00259883, No Iterations 6
ExecutionTime = 0.48 s  ClockTime = 1 s

scalarTransport execute: age
smoothSolver:  Solving for age, Initial residual = 0.0177607, Final residual = 0.00149411, No Iterations 6

Time = 37

smoothSolver:  Solving for Ux, Initial residual = 0.0199751, Final residual = 0.00151453, No Iterations 6
smoothSolver:  Solving for Uy, Initial residual = 0.00968758, Final residual = 0.000698948, No Iterations 6
GAMG:  Solving for p, Initial residual = 0.00971677, Final residual = 0.000783012, No Iterations 2
time step continuity errors : sum local = 0.00195781, global = 9.7618e-05, cumulative = 0.0100392
smoothSolver:  Solving for omega, Initial residual = 0.00296221, Final residual = 0.000202439, No Iterations 6
smoothSolver:  Solving for k, Initial residual = 0.0308645, Final residual = 0.00251262, No Iterations 6
ExecutionTime = 0.49 s  ClockTime = 1 s

scalarTransport execute: age
smoothSolver:  Solving for age, Initial residual = 0.0177455, Final residual = 0.00154987, No Iterations 6

Time = 38

smoothSolver:  Solving for Ux, Initial residual = 0.0198641, Final residual = 0.00150636, No Iterations 6
smoothSolver:  Solving for Uy, Initial residual = 0.00940971, Final residual = 0.000682142, No Iterations 6
GAMG:  Solving for p, Initial residual = 0.0094012, Final residual = 0.000840304, No Iterations 2
time step continuity errors : sum local = 0.00209447, global = 8.97753e-05, cumulative = 0.0101289
smoothSolver:  Solving for omega, Initial residual = 0.00281427, Final residual = 0.000191482, No Iterations 6
smoothSolver:  Solving for k, Initial residual = 0.0298422, Final residual = 0.00243205, No Iterations 6
ExecutionTime = 0.5 s  ClockTime = 1 s

scalarTransport execute: age
smoothSolver:  Solving for age, Initial residual = 0.0176879, Final residual = 0.00160444, No Iterations 6

Time = 39

smoothSolver:  Solving for Ux, Initial residual = 0.0197891, Final residual = 0.00149626, No Iterations 6
smoothSolver:  Solving for Uy, Initial residual = 0.00916722, Final residual = 0.000667573, No Iterations 6
GAMG:  Solving for p, Initial residual = 0.00924299, Final residual = 0.000910046, No Iterations 2
time step continuity errors : sum local = 0.0022623, global = 8.35323e-05, cumulative = 0.0102125
smoothSolver:  Solving for omega, Initial residual = 0.00267589, Final residual = 0.000181231, No Iterations 6
smoothSolver:  Solving for k, Initial residual = 0.0288849, Final residual = 0.00235656, No Iterations 6
ExecutionTime = 0.51 s  ClockTime = 1 s

scalarTransport execute: age
smoothSolver:  Solving for age, Initial residual = 0.0176759, Final residual = 0.00169095, No Iterations 6

Time = 40

smoothSolver:  Solving for Ux, Initial residual = 0.0197045, Final residual = 0.00148454, No Iterations 6
smoothSolver:  Solving for Uy, Initial residual = 0.00894179, Final residual = 0.000654179, No Iterations 6
GAMG:  Solving for p, Initial residual = 0.00914128, Final residual = 0.000646054, No Iterations 3
time step continuity errors : sum local = 0.00160238, global = 8.85635e-05, cumulative = 0.010301
smoothSolver:  Solving for omega, Initial residual = 0.0025628, Final residual = 0.000172004, No Iterations 6
smoothSolver:  Solving for k, Initial residual = 0.02799, Final residual = 0.00228587, No Iterations 6
ExecutionTime = 0.52 s  ClockTime = 1 s

scalarTransport execute: age
smoothSolver:  Solving for age, Initial residual = 0.0178409, Final residual = 0.0015276, No Iterations 7

Time = 41

smoothSolver:  Solving for Ux, Initial residual = 0.0197821, Final residual = 0.00148278, No Iterations 6
smoothSolver:  Solving for Uy, Initial residual = 0.00886461, Final residual = 0.0006502, No Iterations 6
GAMG:  Solving for p, Initial residual = 0.00904464, Final residual = 0.000801144, No Iterations 2
time step continuity errors : sum local = 0.00197848, global = 7.71393e-05, cumulative = 0.0103782
smoothSolver:  Solving for omega, Initial residual = 0.00241758, Final residual = 0.000162655, No Iterations 6
smoothSolver:  Solving for k, Initial residual = 0.0271506, Final residual = 0.00221944, No Iterations 6
ExecutionTime = 0.54 s  ClockTime = 1 s

scalarTransport execute: age
smoothSolver:  Solving for age, Initial residual = 0.017798, Final residual = 0.00152667, No Iterations 7

Time = 42

smoothSolver:  Solving for Ux, Initial residual = 0.0195412, Final residual = 0.00146767, No Iterations 6
smoothSolver:  Solving for Uy, Initial residual = 0.00858099, Final residual = 0.000633816, No Iterations 6
GAMG:  Solving for p, Initial residual = 0.00888994, Final residual = 0.00054517, No Iterations 3
time step continuity errors : sum local = 0.00134504, global = 8.05113e-05, cumulative = 0.0104587
smoothSolver:  Solving for omega, Initial residual = 0.0023028, Final residual = 0.000154258, No Iterations 6
smoothSolver:  Solving for k, Initial residual = 0.0263697, Final residual = 0.00215697, No Iterations 6
ExecutionTime = 0.55 s  ClockTime = 1 s

scalarTransport execute: age
smoothSolver:  Solving for age, Initial residual = 0.0178291, Final residual = 0.00156583, No Iterations 7

Time = 43

smoothSolver:  Solving for Ux, Initial residual = 0.0194133, Final residual = 0.00144774, No Iterations 6
smoothSolver:  Solving for Uy, Initial residual = 0.00844214, Final residual = 0.000625305, No Iterations 6
GAMG:  Solving for p, Initial residual = 0.0086237, Final residual = 0.000854831, No Iterations 2
time step continuity errors : sum local = 0.00210944, global = 6.86124e-05, cumulative = 0.0105273
smoothSolver:  Solving for omega, Initial residual = 0.00219602, Final residual = 0.00014638, No Iterations 6
smoothSolver:  Solving for k, Initial residual = 0.0256321, Final residual = 0.0020977, No Iterations 6
ExecutionTime = 0.56 s  ClockTime = 1 s

scalarTransport execute: age
smoothSolver:  Solving for age, Initial residual = 0.0177598, Final residual = 0.0016099, No Iterations 7

Time = 44

smoothSolver:  Solving for Ux, Initial residual = 0.0191625, Final residual = 0.00143026, No Iterations 6
smoothSolver:  Solving for Uy, Initial residual = 0.00827975, Final residual = 0.000614941, No Iterations 6
GAMG:  Solving for p, Initial residual = 0.00862143, Final residual = 0.000667902, No Iterations 3
time step continuity errors : sum local = 0.00164631, global = 8.12574e-05, cumulative = 0.0106086
smoothSolver:  Solving for omega, Initial residual = 0.00209525, Final residual = 0.000138834, No Iterations 6
smoothSolver:  Solving for k, Initial residual = 0.0249471, Final residual = 0.00204179, No Iterations 6
ExecutionTime = 0.57 s  ClockTime = 1 s

scalarTransport execute: age
smoothSolver:  Solving for age, Initial residual = 0.0179272, Final residual = 0.00167946, No Iterations 7

Time = 45

smoothSolver:  Solving for Ux, Initial residual = 0.019081, Final residual = 0.00141259, No Iterations 6
smoothSolver:  Solving for Uy, Initial residual = 0.00830608, Final residual = 0.000621902, No Iterations 6
GAMG:  Solving for p, Initial residual = 0.00839712, Final residual = 0.000531925, No Iterations 3
time step continuity errors : sum local = 0.00130905, global = 7.52702e-05, cumulative = 0.0106838
smoothSolver:  Solving for omega, Initial residual = 0.00200727, Final residual = 0.000131813, No Iterations 6
smoothSolver:  Solving for k, Initial residual = 0.0242963, Final residual = 0.00198869, No Iterations 6
ExecutionTime = 0.58 s  ClockTime = 1 s

scalarTransport execute: age
smoothSolver:  Solving for age, Initial residual = 0.0181333, Final residual = 0.00180979, No Iterations 7

Time = 46

smoothSolver:  Solving for Ux, Initial residual = 0.0189632, Final residual = 0.00140449, No Iterations 6
smoothSolver:  Solving for Uy, Initial residual = 0.00826492, Final residual = 0.000620047, No Iterations 6
GAMG:  Solving for p, Initial residual = 0.00809622, Final residual = 0.000522611, No Iterations 3
time step continuity errors : sum local = 0.00128116, global = 6.7329e-05, cumulative = 0.0107512
smoothSolver:  Solving for omega, Initial residual = 0.00190936, Final residual = 0.000125187, No Iterations 6
smoothSolver:  Solving for k, Initial residual = 0.0236831, Final residual = 0.00193846, No Iterations 6
ExecutionTime = 0.6 s  ClockTime = 1 s

scalarTransport execute: age
smoothSolver:  Solving for age, Initial residual = 0.0182976, Final residual = 0.0016494, No Iterations 8

Time = 47

smoothSolver:  Solving for Ux, Initial residual = 0.0188042, Final residual = 0.00139389, No Iterations 6
smoothSolver:  Solving for Uy, Initial residual = 0.0082127, Final residual = 0.000620067, No Iterations 6
GAMG:  Solving for p, Initial residual = 0.00788468, Final residual = 0.000505474, No Iterations 3
time step continuity errors : sum local = 0.00123541, global = 6.43316e-05, cumulative = 0.0108155
smoothSolver:  Solving for omega, Initial residual = 0.00182313, Final residual = 0.000119078, No Iterations 6
smoothSolver:  Solving for k, Initial residual = 0.0231011, Final residual = 0.00189074, No Iterations 6
ExecutionTime = 0.61 s  ClockTime = 1 s

scalarTransport execute: age
smoothSolver:  Solving for age, Initial residual = 0.0184107, Final residual = 0.00172649, No Iterations 8

Time = 48

smoothSolver:  Solving for Ux, Initial residual = 0.0186218, Final residual = 0.00137981, No Iterations 6
smoothSolver:  Solving for Uy, Initial residual = 0.0081649, Final residual = 0.000619706, No Iterations 6
GAMG:  Solving for p, Initial residual = 0.00764696, Final residual = 0.000519948, No Iterations 3
time step continuity errors : sum local = 0.00126737, global = 6.31237e-05, cumulative = 0.0108786
smoothSolver:  Solving for omega, Initial residual = 0.00174431, Final residual = 0.000113277, No Iterations 6
smoothSolver:  Solving for k, Initial residual = 0.0225502, Final residual = 0.00184531, No Iterations 6
ExecutionTime = 0.62 s  ClockTime = 1 s

scalarTransport execute: age
smoothSolver:  Solving for age, Initial residual = 0.0186147, Final residual = 0.00180428, No Iterations 8

Time = 49

smoothSolver:  Solving for Ux, Initial residual = 0.0184328, Final residual = 0.0013647, No Iterations 6
smoothSolver:  Solving for Uy, Initial residual = 0.00816095, Final residual = 0.000623125, No Iterations 6
GAMG:  Solving for p, Initial residual = 0.00743696, Final residual = 0.000519734, No Iterations 3
time step continuity errors : sum local = 0.001263, global = 6.69264e-05, cumulative = 0.0109455
smoothSolver:  Solving for omega, Initial residual = 0.00167101, Final residual = 0.00016606, No Iterations 5
smoothSolver:  Solving for k, Initial residual = 0.022039, Final residual = 0.00180292, No Iterations 6
ExecutionTime = 0.63 s  ClockTime = 1 s

scalarTransport execute: age
smoothSolver:  Solving for age, Initial residual = 0.0187318, Final residual = 0.00185826, No Iterations 8

Time = 50

smoothSolver:  Solving for Ux, Initial residual = 0.0182343, Final residual = 0.0013491, No Iterations 6
smoothSolver:  Solving for Uy, Initial residual = 0.00817663, Final residual = 0.000627784, No Iterations 6
GAMG:  Solving for p, Initial residual = 0.0071909, Final residual = 0.000514431, No Iterations 3
time step continuity errors : sum local = 0.00124671, global = 6.92732e-05, cumulative = 0.0110148
smoothSolver:  Solving for omega, Initial residual = 0.00161011, Final residual = 0.000158907, No Iterations 5
smoothSolver:  Solving for k, Initial residual = 0.0215587, Final residual = 0.00176282, No Iterations 6
ExecutionTime = 0.65 s  ClockTime = 1 s

scalarTransport execute: age
smoothSolver:  Solving for age, Initial residual = 0.0188219, Final residual = 0.00162037, No Iterations 9

Time = 51

smoothSolver:  Solving for Ux, Initial residual = 0.0180449, Final residual = 0.00133528, No Iterations 6
smoothSolver:  Solving for Uy, Initial residual = 0.00819029, Final residual = 0.000631959, No Iterations 6
GAMG:  Solving for p, Initial residual = 0.00697246, Final residual = 0.000507786, No Iterations 3
time step continuity errors : sum local = 0.0012263, global = 7.11891e-05, cumulative = 0.011086
smoothSolver:  Solving for omega, Initial residual = 0.00154883, Final residual = 0.000152119, No Iterations 5
smoothSolver:  Solving for k, Initial residual = 0.0210971, Final residual = 0.00172419, No Iterations 6
ExecutionTime = 0.66 s  ClockTime = 1 s

scalarTransport execute: age
smoothSolver:  Solving for age, Initial residual = 0.0187593, Final residual = 0.00186905, No Iterations 8

Time = 52

smoothSolver:  Solving for Ux, Initial residual = 0.0178277, Final residual = 0.00132012, No Iterations 6
smoothSolver:  Solving for Uy, Initial residual = 0.0082176, Final residual = 0.00063714, No Iterations 6
GAMG:  Solving for p, Initial residual = 0.00676358, Final residual = 0.000493943, No Iterations 3
time step continuity errors : sum local = 0.00118902, global = 7.23614e-05, cumulative = 0.0111584
smoothSolver:  Solving for omega, Initial residual = 0.00149323, Final residual = 0.00014572, No Iterations 5
smoothSolver:  Solving for k, Initial residual = 0.020654, Final residual = 0.00168695, No Iterations 6
ExecutionTime = 0.67 s  ClockTime = 1 s

scalarTransport execute: age
smoothSolver:  Solving for age, Initial residual = 0.0187321, Final residual = 0.0018685, No Iterations 8

Time = 53

smoothSolver:  Solving for Ux, Initial residual = 0.0176186, Final residual = 0.00130595, No Iterations 6
smoothSolver:  Solving for Uy, Initial residual = 0.00822828, Final residual = 0.000641097, No Iterations 6
GAMG:  Solving for p, Initial residual = 0.00658693, Final residual = 0.000495804, No Iterations 3
time step continuity errors : sum local = 0.00118908, global = 7.27559e-05, cumulative = 0.0112311
smoothSolver:  Solving for omega, Initial residual = 0.0014387, Final residual = 0.000139446, No Iterations 5
smoothSolver:  Solving for k, Initial residual = 0.0202278, Final residual = 0.00165101, No Iterations 6
ExecutionTime = 0.68 s  ClockTime = 1 s

scalarTransport execute: age
smoothSolver:  Solving for age, Initial residual = 0.0187389, Final residual = 0.00183655, No Iterations 8

Time = 54

smoothSolver:  Solving for Ux, Initial residual = 0.0173795, Final residual = 0.00128949, No Iterations 6
smoothSolver:  Solving for Uy, Initial residual = 0.00825749, Final residual = 0.000646701, No Iterations 6
GAMG:  Solving for p, Initial residual = 0.00645752, Final residual = 0.000494467, No Iterations 3
time step continuity errors : sum local = 0.00118221, global = 7.50562e-05, cumulative = 0.0113062
smoothSolver:  Solving for omega, Initial residual = 0.00139681, Final residual = 0.000133482, No Iterations 5
smoothSolver:  Solving for k, Initial residual = 0.0198173, Final residual = 0.00161628, No Iterations 6
ExecutionTime = 0.7 s  ClockTime = 1 s

scalarTransport execute: age
smoothSolver:  Solving for age, Initial residual = 0.0186444, Final residual = 0.0017779, No Iterations 8

Time = 55

smoothSolver:  Solving for Ux, Initial residual = 0.0171519, Final residual = 0.00127321, No Iterations 6
smoothSolver:  Solving for Uy, Initial residual = 0.00828895, Final residual = 0.000651364, No Iterations 6
GAMG:  Solving for p, Initial residual = 0.00633437, Final residual = 0.000498781, No Iterations 3
time step continuity errors : sum local = 0.00118862, global = 7.67357e-05, cumulative = 0.0113829
smoothSolver:  Solving for omega, Initial residual = 0.0013503, Final residual = 0.000127895, No Iterations 5
smoothSolver:  Solving for k, Initial residual = 0.0194201, Final residual = 0.00158256, No Iterations 6
ExecutionTime = 0.71 s  ClockTime = 1 s

scalarTransport execute: age
smoothSolver:  Solving for age, Initial residual = 0.018538, Final residual = 0.0017294, No Iterations 8

Time = 56

smoothSolver:  Solving for Ux, Initial residual = 0.0169342, Final residual = 0.00125685, No Iterations 6
smoothSolver:  Solving for Uy, Initial residual = 0.00831632, Final residual = 0.000655166, No Iterations 6
GAMG:  Solving for p, Initial residual = 0.00626611, Final residual = 0.00050142, No Iterations 3
time step continuity errors : sum local = 0.00119084, global = 7.72002e-05, cumulative = 0.0114601
smoothSolver:  Solving for omega, Initial residual = 0.00130593, Final residual = 0.000122625, No Iterations 5
smoothSolver:  Solving for k, Initial residual = 0.0190341, Final residual = 0.00154978, No Iterations 6
ExecutionTime = 0.72 s  ClockTime = 1 s

scalarTransport execute: age
smoothSolver:  Solving for age, Initial residual = 0.0184949, Final residual = 0.00168317, No Iterations 8

Time = 57

smoothSolver:  Solving for Ux, Initial residual = 0.0167343, Final residual = 0.00124083, No Iterations 6
smoothSolver:  Solving for Uy, Initial residual = 0.00833787, Final residual = 0.000657871, No Iterations 6
GAMG:  Solving for p, Initial residual = 0.00627438, Final residual = 0.00050528, No Iterations 3
time step continuity errors : sum local = 0.00119539, global = 7.72873e-05, cumulative = 0.0115374
smoothSolver:  Solving for omega, Initial residual = 0.00126792, Final residual = 0.000117389, No Iterations 5
smoothSolver:  Solving for k, Initial residual = 0.0186612, Final residual = 0.00151791, No Iterations 6
ExecutionTime = 0.73 s  ClockTime = 1 s

scalarTransport execute: age
smoothSolver:  Solving for age, Initial residual = 0.0185062, Final residual = 0.00166682, No Iterations 8

Time = 58

smoothSolver:  Solving for Ux, Initial residual = 0.0165494, Final residual = 0.00122528, No Iterations 6
smoothSolver:  Solving for Uy, Initial residual = 0.00834641, Final residual = 0.000659048, No Iterations 6
GAMG:  Solving for p, Initial residual = 0.00633622, Final residual = 0.000510779, No Iterations 3
time step continuity errors : sum local = 0.00120441, global = 7.67317e-05, cumulative = 0.0116141
smoothSolver:  Solving for omega, Initial residual = 0.00122993, Final residual = 0.000112717, No Iterations 5
smoothSolver:  Solving for k, Initial residual = 0.0182955, Final residual = 0.00148678, No Iterations 6
ExecutionTime = 0.75 s  ClockTime = 1 s

scalarTransport execute: age
smoothSolver:  Solving for age, Initial residual = 0.0187889, Final residual = 0.00178576, No Iterations 8

Time = 59

smoothSolver:  Solving for Ux, Initial residual = 0.0163793, Final residual = 0.00121033, No Iterations 6
smoothSolver:  Solving for Uy, Initial residual = 0.00834252, Final residual = 0.000658918, No Iterations 6
GAMG:  Solving for p, Initial residual = 0.00629338, Final residual = 0.000510979, No Iterations 3
time step continuity errors : sum local = 0.00119826, global = 7.79907e-05, cumulative = 0.0116921
smoothSolver:  Solving for omega, Initial residual = 0.00119648, Final residual = 0.000108367, No Iterations 5
smoothSolver:  Solving for k, Initial residual = 0.0179378, Final residual = 0.00145632, No Iterations 6
ExecutionTime = 0.76 s  ClockTime = 1 s

scalarTransport execute: age
smoothSolver:  Solving for age, Initial residual = 0.0188867, Final residual = 0.00183047, No Iterations 8

Time = 60

smoothSolver:  Solving for Ux, Initial residual = 0.0162101, Final residual = 0.00119587, No Iterations 6
smoothSolver:  Solving for Uy, Initial residual = 0.00832957, Final residual = 0.000657792, No Iterations 6
GAMG:  Solving for p, Initial residual = 0.00630837, Final residual = 0.000520733, No Iterations 3
time step continuity errors : sum local = 0.00121584, global = 7.64325e-05, cumulative = 0.0117686
smoothSolver:  Solving for omega, Initial residual = 0.00116546, Final residual = 0.000104219, No Iterations 5
smoothSolver:  Solving for k, Initial residual = 0.0175896, Final residual = 0.00142645, No Iterations 6
ExecutionTime = 0.77 s  ClockTime = 1 s

scalarTransport execute: age
smoothSolver:  Solving for age, Initial residual = 0.0190245, Final residual = 0.00189832, No Iterations 8

Time = 61

smoothSolver:  Solving for Ux, Initial residual = 0.0160492, Final residual = 0.00118205, No Iterations 6
smoothSolver:  Solving for Uy, Initial residual = 0.00829323, Final residual = 0.00065448, No Iterations 6
GAMG:  Solving for p, Initial residual = 0.00633073, Final residual = 0.000512304, No Iterations 3
time step continuity errors : sum local = 0.00119029, global = 7.17212e-05, cumulative = 0.0118403
smoothSolver:  Solving for omega, Initial residual = 0.00113542, Final residual = 0.000100225, No Iterations 5
smoothSolver:  Solving for k, Initial residual = 0.0172458, Final residual = 0.00139717, No Iterations 6
ExecutionTime = 0.78 s  ClockTime = 1 s

scalarTransport execute: age
smoothSolver:  Solving for age, Initial residual = 0.0190352, Final residual = 0.00167951, No Iterations 9

Time = 62

smoothSolver:  Solving for Ux, Initial residual = 0.015899, Final residual = 0.00116963, No Iterations 6
smoothSolver:  Solving for Uy, Initial residual = 0.00822911, Final residual = 0.000648666, No Iterations 6
GAMG:  Solving for p, Initial residual = 0.00635813, Final residual = 0.000524942, No Iterations 3
time step continuity errors : sum local = 0.00121391, global = 6.59397e-05, cumulative = 0.0119062
smoothSolver:  Solving for omega, Initial residual = 0.00110528, Final residual = 9.64262e-05, No Iterations 5
smoothSolver:  Solving for k, Initial residual = 0.0169078, Final residual = 0.00136838, No Iterations 6
ExecutionTime = 0.8 s  ClockTime = 1 s

scalarTransport execute: age
smoothSolver:  Solving for age, Initial residual = 0.0190407, Final residual = 0.00171606, No Iterations 9

Time = 63

smoothSolver:  Solving for Ux, Initial residual = 0.0157412, Final residual = 0.00115684, No Iterations 6
smoothSolver:  Solving for Uy, Initial residual = 0.00816372, Final residual = 0.00064296, No Iterations 6
GAMG:  Solving for p, Initial residual = 0.00639138, Final residual = 0.000523299, No Iterations 3
time step continuity errors : sum local = 0.00120542, global = 6.30167e-05, cumulative = 0.0119692
smoothSolver:  Solving for omega, Initial residual = 0.00107704, Final residual = 9.29493e-05, No Iterations 5
smoothSolver:  Solving for k, Initial residual = 0.0165753, Final residual = 0.00134008, No Iterations 6
ExecutionTime = 0.81 s  ClockTime = 1 s

scalarTransport execute: age
smoothSolver:  Solving for age, Initial residual = 0.0187954, Final residual = 0.0017256, No Iterations 9

Time = 64

smoothSolver:  Solving for Ux, Initial residual = 0.0155741, Final residual = 0.00114365, No Iterations 6
smoothSolver:  Solving for Uy, Initial residual = 0.00808237, Final residual = 0.000636149, No Iterations 6
GAMG:  Solving for p, Initial residual = 0.006422, Final residual = 0.000534176, No Iterations 3
time step continuity errors : sum local = 0.0012263, global = 6.12545e-05, cumulative = 0.0120305
smoothSolver:  Solving for omega, Initial residual = 0.00105284, Final residual = 8.97164e-05, No Iterations 5
smoothSolver:  Solving for k, Initial residual = 0.016248, Final residual = 0.00131216, No Iterations 6
ExecutionTime = 0.82 s  ClockTime = 1 s

scalarTransport execute: age
smoothSolver:  Solving for age, Initial residual = 0.0186179, Final residual = 0.00173646, No Iterations 9

Time = 65

smoothSolver:  Solving for Ux, Initial residual = 0.0154078, Final residual = 0.00113045, No Iterations 6
smoothSolver:  Solving for Uy, Initial residual = 0.0079897, Final residual = 0.000628189, No Iterations 6
GAMG:  Solving for p, Initial residual = 0.00648955, Final residual = 0.000530664, No Iterations 3
time step continuity errors : sum local = 0.00121451, global = 6.06652e-05, cumulative = 0.0120912
smoothSolver:  Solving for omega, Initial residual = 0.00102984, Final residual = 8.67076e-05, No Iterations 5
smoothSolver:  Solving for k, Initial residual = 0.0159256, Final residual = 0.00128457, No Iterations 6
ExecutionTime = 0.83 s  ClockTime = 1 s

scalarTransport execute: age
smoothSolver:  Solving for age, Initial residual = 0.0184651, Final residual = 0.00174617, No Iterations 9

Time = 66

smoothSolver:  Solving for Ux, Initial residual = 0.015241, Final residual = 0.00111734, No Iterations 6
smoothSolver:  Solving for Uy, Initial residual = 0.00787953, Final residual = 0.000618822, No Iterations 6
GAMG:  Solving for p, Initial residual = 0.00653901, Final residual = 0.000535919, No Iterations 3
time step continuity errors : sum local = 0.00122245, global = 6.07893e-05, cumulative = 0.0121519
smoothSolver:  Solving for omega, Initial residual = 0.00100808, Final residual = 8.38928e-05, No Iterations 5
smoothSolver:  Solving for k, Initial residual = 0.0156064, Final residual = 0.0012573, No Iterations 6
ExecutionTime = 0.84 s  ClockTime = 1 s

scalarTransport execute: age
smoothSolver:  Solving for age, Initial residual = 0.0181524, Final residual = 0.00174644, No Iterations 9

Time = 67

smoothSolver:  Solving for Ux, Initial residual = 0.0150699, Final residual = 0.00110438, No Iterations 6
smoothSolver:  Solving for Uy, Initial residual = 0.00775352, Final residual = 0.000608269, No Iterations 6
GAMG:  Solving for p, Initial residual = 0.00660263, Final residual = 0.000531666, No Iterations 3
time step continuity errors : sum local = 0.00120878, global = 6.14846e-05, cumulative = 0.0122134
smoothSolver:  Solving for omega, Initial residual = 0.000988179, Final residual = 8.12656e-05, No Iterations 5
smoothSolver:  Solving for k, Initial residual = 0.0152904, Final residual = 0.00123031, No Iterations 6
ExecutionTime = 0.86 s  ClockTime = 1 s

scalarTransport execute: age
smoothSolver:  Solving for age, Initial residual = 0.0179303, Final residual = 0.00173588, No Iterations 9

Time = 68

smoothSolver:  Solving for Ux, Initial residual = 0.0148968, Final residual = 0.00109129, No Iterations 6
smoothSolver:  Solving for Uy, Initial residual = 0.00761519, Final residual = 0.000596537, No Iterations 6
GAMG:  Solving for p, Initial residual = 0.00667813, Final residual = 0.000532578, No Iterations 3
time step continuity errors : sum local = 0.00120704, global = 6.23471e-05, cumulative = 0.0122758
smoothSolver:  Solving for omega, Initial residual = 0.000970029, Final residual = 7.88185e-05, No Iterations 5
smoothSolver:  Solving for k, Initial residual = 0.0149767, Final residual = 0.00120352, No Iterations 6
ExecutionTime = 0.87 s  ClockTime = 1 s

scalarTransport execute: age
smoothSolver:  Solving for age, Initial residual = 0.0173667, Final residual = 0.00170536, No Iterations 9

Time = 69

smoothSolver:  Solving for Ux, Initial residual = 0.0147184, Final residual = 0.00107796, No Iterations 6
smoothSolver:  Solving for Uy, Initial residual = 0.00746307, Final residual = 0.000583904, No Iterations 6
GAMG:  Solving for p, Initial residual = 0.00672781, Final residual = 0.000538222, No Iterations 3
time step continuity errors : sum local = 0.00121601, global = 6.56903e-05, cumulative = 0.0123415
smoothSolver:  Solving for omega, Initial residual = 0.000952328, Final residual = 7.65273e-05, No Iterations 5
smoothSolver:  Solving for k, Initial residual = 0.0146646, Final residual = 0.00117684, No Iterations 6
ExecutionTime = 0.88 s  ClockTime = 1 s

scalarTransport execute: age
smoothSolver:  Solving for age, Initial residual = 0.0167855, Final residual = 0.00166757, No Iterations 9

Time = 70

smoothSolver:  Solving for Ux, Initial residual = 0.0145241, Final residual = 0.00106335, No Iterations 6
smoothSolver:  Solving for Uy, Initial residual = 0.00731025, Final residual = 0.000571546, No Iterations 6
GAMG:  Solving for p, Initial residual = 0.00675681, Final residual = 0.000524646, No Iterations 3
time step continuity errors : sum local = 0.00118196, global = 6.83265e-05, cumulative = 0.0124098
smoothSolver:  Solving for omega, Initial residual = 0.000936941, Final residual = 7.43378e-05, No Iterations 5
smoothSolver:  Solving for k, Initial residual = 0.0143545, Final residual = 0.00115035, No Iterations 6
ExecutionTime = 0.89 s  ClockTime = 1 s

scalarTransport execute: age
smoothSolver:  Solving for age, Initial residual = 0.0161141, Final residual = 0.0014298, No Iterations 10

Time = 71

smoothSolver:  Solving for Ux, Initial residual = 0.0143282, Final residual = 0.00104822, No Iterations 6
smoothSolver:  Solving for Uy, Initial residual = 0.0071443, Final residual = 0.000558049, No Iterations 6
GAMG:  Solving for p, Initial residual = 0.00684185, Final residual = 0.000518258, No Iterations 3
time step continuity errors : sum local = 0.00116407, global = 6.89404e-05, cumulative = 0.0124787
smoothSolver:  Solving for omega, Initial residual = 0.000921621, Final residual = 7.22428e-05, No Iterations 5
smoothSolver:  Solving for k, Initial residual = 0.014047, Final residual = 0.00112397, No Iterations 6
ExecutionTime = 0.9 s  ClockTime = 1 s

scalarTransport execute: age
smoothSolver:  Solving for age, Initial residual = 0.0153533, Final residual = 0.00140855, No Iterations 10

Time = 72

smoothSolver:  Solving for Ux, Initial residual = 0.0141217, Final residual = 0.00103242, No Iterations 6
smoothSolver:  Solving for Uy, Initial residual = 0.00698345, Final residual = 0.000545093, No Iterations 6
GAMG:  Solving for p, Initial residual = 0.00699363, Final residual = 0.000495455, No Iterations 3
time step continuity errors : sum local = 0.00111005, global = 6.83389e-05, cumulative = 0.0125471
smoothSolver:  Solving for omega, Initial residual = 0.00090602, Final residual = 7.02108e-05, No Iterations 5
smoothSolver:  Solving for k, Initial residual = 0.0137416, Final residual = 0.00109773, No Iterations 6
ExecutionTime = 0.92 s  ClockTime = 1 s

scalarTransport execute: age
smoothSolver:  Solving for age, Initial residual = 0.0146138, Final residual = 0.00137771, No Iterations 10

Time = 73

smoothSolver:  Solving for Ux, Initial residual = 0.0139034, Final residual = 0.00101561, No Iterations 6
smoothSolver:  Solving for Uy, Initial residual = 0.00683021, Final residual = 0.000533337, No Iterations 6
GAMG:  Solving for p, Initial residual = 0.00713091, Final residual = 0.000482274, No Iterations 3
time step continuity errors : sum local = 0.00107831, global = 6.71924e-05, cumulative = 0.0126143
smoothSolver:  Solving for omega, Initial residual = 0.000890393, Final residual = 6.82672e-05, No Iterations 5
smoothSolver:  Solving for k, Initial residual = 0.013437, Final residual = 0.00107157, No Iterations 6
ExecutionTime = 0.93 s  ClockTime = 1 s

scalarTransport execute: age
smoothSolver:  Solving for age, Initial residual = 0.0139633, Final residual = 0.00134716, No Iterations 10

Time = 74

smoothSolver:  Solving for Ux, Initial residual = 0.0136749, Final residual = 0.000998156, No Iterations 6
smoothSolver:  Solving for Uy, Initial residual = 0.00669812, Final residual = 0.000523685, No Iterations 6
GAMG:  Solving for p, Initial residual = 0.00718961, Final residual = 0.000457985, No Iterations 3
time step continuity errors : sum local = 0.00102221, global = 6.58782e-05, cumulative = 0.0126801
smoothSolver:  Solving for omega, Initial residual = 0.000874337, Final residual = 6.63493e-05, No Iterations 5
smoothSolver:  Solving for k, Initial residual = 0.0131324, Final residual = 0.00104543, No Iterations 6
ExecutionTime = 0.94 s  ClockTime = 1 s

scalarTransport execute: age
smoothSolver:  Solving for age, Initial residual = 0.013313, Final residual = 0.00131977, No Iterations 10

Time = 75

smoothSolver:  Solving for Ux, Initial residual = 0.0134354, Final residual = 0.000979924, No Iterations 6
smoothSolver:  Solving for Uy, Initial residual = 0.00659157, Final residual = 0.000515368, No Iterations 6
GAMG:  Solving for p, Initial residual = 0.00722699, Final residual = 0.000446905, No Iterations 3
time step continuity errors : sum local = 0.000996445, global = 6.11286e-05, cumulative = 0.0127413
smoothSolver:  Solving for omega, Initial residual = 0.000858468, Final residual = 6.44743e-05, No Iterations 5
smoothSolver:  Solving for k, Initial residual = 0.0128283, Final residual = 0.00101937, No Iterations 6
ExecutionTime = 0.95 s  ClockTime = 1 s

scalarTransport execute: age
smoothSolver:  Solving for age, Initial residual = 0.0127472, Final residual = 0.00114323, No Iterations 11

Time = 76

smoothSolver:  Solving for Ux, Initial residual = 0.0131906, Final residual = 0.000961404, No Iterations 6
smoothSolver:  Solving for Uy, Initial residual = 0.00649424, Final residual = 0.000508056, No Iterations 6
GAMG:  Solving for p, Initial residual = 0.00721079, Final residual = 0.000425762, No Iterations 3
time step continuity errors : sum local = 0.000948926, global = 5.9096e-05, cumulative = 0.0128004
smoothSolver:  Solving for omega, Initial residual = 0.000843803, Final residual = 6.26206e-05, No Iterations 5
smoothSolver:  Solving for k, Initial residual = 0.0125256, Final residual = 0.000993398, No Iterations 6
ExecutionTime = 0.96 s  ClockTime = 1 s

scalarTransport execute: age
smoothSolver:  Solving for age, Initial residual = 0.0122274, Final residual = 0.0011216, No Iterations 11

Time = 77

smoothSolver:  Solving for Ux, Initial residual = 0.0129366, Final residual = 0.000942101, No Iterations 6
smoothSolver:  Solving for Uy, Initial residual = 0.00640914, Final residual = 0.000501213, No Iterations 6
GAMG:  Solving for p, Initial residual = 0.00715015, Final residual = 0.000416984, No Iterations 3
time step continuity errors : sum local = 0.000929056, global = 5.72635e-05, cumulative = 0.0128576
smoothSolver:  Solving for omega, Initial residual = 0.000827569, Final residual = 6.08066e-05, No Iterations 5
smoothSolver:  Solving for k, Initial residual = 0.0122232, Final residual = 0.000967519, No Iterations 6
ExecutionTime = 0.98 s  ClockTime = 1 s

scalarTransport execute: age
smoothSolver:  Solving for age, Initial residual = 0.011752, Final residual = 0.00110173, No Iterations 11

Time = 78

smoothSolver:  Solving for Ux, Initial residual = 0.0126727, Final residual = 0.000922341, No Iterations 6
smoothSolver:  Solving for Uy, Initial residual = 0.00632816, Final residual = 0.000494871, No Iterations 6
GAMG:  Solving for p, Initial residual = 0.00704716, Final residual = 0.000406585, No Iterations 3
time step continuity errors : sum local = 0.000905023, global = 5.57244e-05, cumulative = 0.0129134
smoothSolver:  Solving for omega, Initial residual = 0.000811759, Final residual = 5.89963e-05, No Iterations 5
smoothSolver:  Solving for k, Initial residual = 0.0119224, Final residual = 0.00094183, No Iterations 6
ExecutionTime = 0.99 s  ClockTime = 1 s

scalarTransport execute: age
smoothSolver:  Solving for age, Initial residual = 0.0113027, Final residual = 0.00108596, No Iterations 11

Time = 79

smoothSolver:  Solving for Ux, Initial residual = 0.0124052, Final residual = 0.000902086, No Iterations 6
smoothSolver:  Solving for Uy, Initial residual = 0.00625046, Final residual = 0.000488623, No Iterations 6
GAMG:  Solving for p, Initial residual = 0.00691568, Final residual = 0.000401278, No Iterations 3
time step continuity errors : sum local = 0.000892683, global = 5.43514e-05, cumulative = 0.0129677
smoothSolver:  Solving for omega, Initial residual = 0.00079506, Final residual = 5.71795e-05, No Iterations 5
smoothSolver:  Solving for k, Initial residual = 0.0116237, Final residual = 0.00091633, No Iterations 6
ExecutionTime = 1 s  ClockTime = 1 s

scalarTransport execute: age
smoothSolver:  Solving for age, Initial residual = 0.0109194, Final residual = 0.00107572, No Iterations 11

Time = 80

smoothSolver:  Solving for Ux, Initial residual = 0.0121361, Final residual = 0.000881381, No Iterations 6
smoothSolver:  Solving for Uy, Initial residual = 0.00617024, Final residual = 0.000482289, No Iterations 6
GAMG:  Solving for p, Initial residual = 0.00678083, Final residual = 0.000396285, No Iterations 3
time step continuity errors : sum local = 0.000880842, global = 5.28673e-05, cumulative = 0.0130206
smoothSolver:  Solving for omega, Initial residual = 0.000778153, Final residual = 5.54137e-05, No Iterations 5
smoothSolver:  Solving for k, Initial residual = 0.0113286, Final residual = 0.000891086, No Iterations 6
ExecutionTime = 1.01 s  ClockTime = 1 s

scalarTransport execute: age
smoothSolver:  Solving for age, Initial residual = 0.0105904, Final residual = 0.00094359, No Iterations 12

Time = 81

smoothSolver:  Solving for Ux, Initial residual = 0.0118642, Final residual = 0.000860512, No Iterations 6
smoothSolver:  Solving for Uy, Initial residual = 0.00609229, Final residual = 0.000475646, No Iterations 6
GAMG:  Solving for p, Initial residual = 0.00664441, Final residual = 0.000392024, No Iterations 3
time step continuity errors : sum local = 0.000870582, global = 5.13904e-05, cumulative = 0.013072
smoothSolver:  Solving for omega, Initial residual = 0.000761934, Final residual = 5.36739e-05, No Iterations 5
smoothSolver:  Solving for k, Initial residual = 0.0110369, Final residual = 0.000866079, No Iterations 6
ExecutionTime = 1.02 s  ClockTime = 2 s

scalarTransport execute: age
smoothSolver:  Solving for age, Initial residual = 0.0102679, Final residual = 0.000936659, No Iterations 12

Time = 82

smoothSolver:  Solving for Ux, Initial residual = 0.011591, Final residual = 0.00083925, No Iterations 6
smoothSolver:  Solving for Uy, Initial residual = 0.00601134, Final residual = 0.00046855, No Iterations 6
GAMG:  Solving for p, Initial residual = 0.00649557, Final residual = 0.000389525, No Iterations 3
time step continuity errors : sum local = 0.000864207, global = 4.93819e-05, cumulative = 0.0131213
smoothSolver:  Solving for omega, Initial residual = 0.000744998, Final residual = 5.19549e-05, No Iterations 5
smoothSolver:  Solving for k, Initial residual = 0.0107494, Final residual = 0.000841398, No Iterations 6
ExecutionTime = 1.04 s  ClockTime = 2 s

scalarTransport execute: age
smoothSolver:  Solving for age, Initial residual = 0.0099739, Final residual = 0.00092927, No Iterations 12

Time = 83

smoothSolver:  Solving for Ux, Initial residual = 0.0113165, Final residual = 0.000817733, No Iterations 6
smoothSolver:  Solving for Uy, Initial residual = 0.00593011, Final residual = 0.00046108, No Iterations 6
GAMG:  Solving for p, Initial residual = 0.00634574, Final residual = 0.000388176, No Iterations 3
time step continuity errors : sum local = 0.00086038, global = 4.68076e-05, cumulative = 0.0131682
smoothSolver:  Solving for omega, Initial residual = 0.000728758, Final residual = 5.0257e-05, No Iterations 5
smoothSolver:  Solving for k, Initial residual = 0.0104668, Final residual = 0.000817092, No Iterations 6
ExecutionTime = 1.05 s  ClockTime = 2 s

scalarTransport execute: age
smoothSolver:  Solving for age, Initial residual = 0.00970978, Final residual = 0.000921182, No Iterations 12

Time = 84

smoothSolver:  Solving for Ux, Initial residual = 0.0110363, Final residual = 0.00079608, No Iterations 6
smoothSolver:  Solving for Uy, Initial residual = 0.00584474, Final residual = 0.000453242, No Iterations 6
GAMG:  Solving for p, Initial residual = 0.0062091, Final residual = 0.000387507, No Iterations 3
time step continuity errors : sum local = 0.000857717, global = 4.3633e-05, cumulative = 0.0132118
smoothSolver:  Solving for omega, Initial residual = 0.000712448, Final residual = 4.85875e-05, No Iterations 5
smoothSolver:  Solving for k, Initial residual = 0.0101892, Final residual = 0.000793167, No Iterations 6
ExecutionTime = 1.06 s  ClockTime = 2 s

scalarTransport execute: age
smoothSolver:  Solving for age, Initial residual = 0.00945418, Final residual = 0.000911975, No Iterations 12

Time = 85

smoothSolver:  Solving for Ux, Initial residual = 0.0107515, Final residual = 0.000773974, No Iterations 6
smoothSolver:  Solving for Uy, Initial residual = 0.00575871, Final residual = 0.000445055, No Iterations 6
GAMG:  Solving for p, Initial residual = 0.0060785, Final residual = 0.000372273, No Iterations 3
time step continuity errors : sum local = 0.000822729, global = 3.9523e-05, cumulative = 0.0132513
smoothSolver:  Solving for omega, Initial residual = 0.000697822, Final residual = 4.6961e-05, No Iterations 5
smoothSolver:  Solving for k, Initial residual = 0.00991694, Final residual = 0.000769612, No Iterations 6
ExecutionTime = 1.07 s  ClockTime = 2 s

scalarTransport execute: age
smoothSolver:  Solving for age, Initial residual = 0.00921265, Final residual = 0.000901306, No Iterations 12

Time = 86

smoothSolver:  Solving for Ux, Initial residual = 0.0104692, Final residual = 0.000751907, No Iterations 6
smoothSolver:  Solving for Uy, Initial residual = 0.00566806, Final residual = 0.000436291, No Iterations 6
GAMG:  Solving for p, Initial residual = 0.00598786, Final residual = 0.000380293, No Iterations 3
time step continuity errors : sum local = 0.000838887, global = 3.54882e-05, cumulative = 0.0132868
smoothSolver:  Solving for omega, Initial residual = 0.000682834, Final residual = 4.53886e-05, No Iterations 5
smoothSolver:  Solving for k, Initial residual = 0.00964856, Final residual = 0.000746362, No Iterations 6
ExecutionTime = 1.09 s  ClockTime = 2 s

scalarTransport execute: age
smoothSolver:  Solving for age, Initial residual = 0.00898478, Final residual = 0.000889973, No Iterations 12

Time = 87

smoothSolver:  Solving for Ux, Initial residual = 0.0101721, Final residual = 0.000728939, No Iterations 6
smoothSolver:  Solving for Uy, Initial residual = 0.00558508, Final residual = 0.000428123, No Iterations 6
GAMG:  Solving for p, Initial residual = 0.00594693, Final residual = 0.000373019, No Iterations 3
time step continuity errors : sum local = 0.000821531, global = 3.02097e-05, cumulative = 0.013317
smoothSolver:  Solving for omega, Initial residual = 0.000668786, Final residual = 4.38753e-05, No Iterations 5
smoothSolver:  Solving for k, Initial residual = 0.00938564, Final residual = 0.000723489, No Iterations 6
ExecutionTime = 1.1 s  ClockTime = 2 s

scalarTransport execute: age
smoothSolver:  Solving for age, Initial residual = 0.00876049, Final residual = 0.000770983, No Iterations 13

Time = 88

smoothSolver:  Solving for Ux, Initial residual = 0.00988106, Final residual = 0.000706128, No Iterations 6
smoothSolver:  Solving for Uy, Initial residual = 0.00549635, Final residual = 0.000419375, No Iterations 6
GAMG:  Solving for p, Initial residual = 0.00597117, Final residual = 0.000373193, No Iterations 3
time step continuity errors : sum local = 0.0008203, global = 2.63144e-05, cumulative = 0.0133433
smoothSolver:  Solving for omega, Initial residual = 0.000655543, Final residual = 4.24108e-05, No Iterations 5
smoothSolver:  Solving for k, Initial residual = 0.00912844, Final residual = 0.000700997, No Iterations 6
ExecutionTime = 1.11 s  ClockTime = 2 s

scalarTransport execute: age
smoothSolver:  Solving for age, Initial residual = 0.00852454, Final residual = 0.000754787, No Iterations 13

Time = 89

smoothSolver:  Solving for Ux, Initial residual = 0.00958668, Final residual = 0.000682859, No Iterations 6
smoothSolver:  Solving for Uy, Initial residual = 0.00541639, Final residual = 0.00041115, No Iterations 6
GAMG:  Solving for p, Initial residual = 0.00602138, Final residual = 0.000374803, No Iterations 3
time step continuity errors : sum local = 0.000822225, global = 2.20293e-05, cumulative = 0.0133654
smoothSolver:  Solving for omega, Initial residual = 0.000645186, Final residual = 4.10359e-05, No Iterations 5
smoothSolver:  Solving for k, Initial residual = 0.00887609, Final residual = 0.000678815, No Iterations 6
ExecutionTime = 1.12 s  ClockTime = 2 s

scalarTransport execute: age
smoothSolver:  Solving for age, Initial residual = 0.008298, Final residual = 0.000738517, No Iterations 13

Time = 90

smoothSolver:  Solving for Ux, Initial residual = 0.00929355, Final residual = 0.000659413, No Iterations 6
smoothSolver:  Solving for Uy, Initial residual = 0.00533888, Final residual = 0.000403188, No Iterations 6
GAMG:  Solving for p, Initial residual = 0.00610996, Final residual = 0.000376322, No Iterations 3
time step continuity errors : sum local = 0.000823771, global = 1.83152e-05, cumulative = 0.0133837
smoothSolver:  Solving for omega, Initial residual = 0.000636548, Final residual = 3.97209e-05, No Iterations 5
smoothSolver:  Solving for k, Initial residual = 0.00862852, Final residual = 0.000656927, No Iterations 6
ExecutionTime = 1.14 s  ClockTime = 2 s

scalarTransport execute: age
smoothSolver:  Solving for age, Initial residual = 0.00806429, Final residual = 0.000721731, No Iterations 13

Time = 91

smoothSolver:  Solving for Ux, Initial residual = 0.00899981, Final residual = 0.000635628, No Iterations 6
smoothSolver:  Solving for Uy, Initial residual = 0.00527039, Final residual = 0.000395718, No Iterations 6
GAMG:  Solving for p, Initial residual = 0.00619517, Final residual = 0.000385894, No Iterations 3
time step continuity errors : sum local = 0.000842112, global = 1.49966e-05, cumulative = 0.0133987
smoothSolver:  Solving for omega, Initial residual = 0.000631179, Final residual = 6.29254e-05, No Iterations 4
smoothSolver:  Solving for k, Initial residual = 0.00838817, Final residual = 0.000635455, No Iterations 6
ExecutionTime = 1.15 s  ClockTime = 2 s

scalarTransport execute: age
smoothSolver:  Solving for age, Initial residual = 0.00785009, Final residual = 0.000705697, No Iterations 13

Time = 92

smoothSolver:  Solving for Ux, Initial residual = 0.00869628, Final residual = 0.000611782, No Iterations 6
smoothSolver:  Solving for Uy, Initial residual = 0.00521385, Final residual = 0.000388985, No Iterations 6
GAMG:  Solving for p, Initial residual = 0.00619657, Final residual = 0.000391989, No Iterations 3
time step continuity errors : sum local = 0.000852078, global = 1.19097e-05, cumulative = 0.0134106
smoothSolver:  Solving for omega, Initial residual = 0.000632918, Final residual = 6.16907e-05, No Iterations 4
smoothSolver:  Solving for k, Initial residual = 0.00815317, Final residual = 0.000614306, No Iterations 6
ExecutionTime = 1.16 s  ClockTime = 2 s

scalarTransport execute: age
smoothSolver:  Solving for age, Initial residual = 0.00767229, Final residual = 0.000691692, No Iterations 13

Time = 93

smoothSolver:  Solving for Ux, Initial residual = 0.00839523, Final residual = 0.000587796, No Iterations 6
smoothSolver:  Solving for Uy, Initial residual = 0.00516577, Final residual = 0.000382825, No Iterations 6
GAMG:  Solving for p, Initial residual = 0.00616994, Final residual = 0.000391765, No Iterations 3
time step continuity errors : sum local = 0.000848014, global = 8.929e-06, cumulative = 0.0134195
smoothSolver:  Solving for omega, Initial residual = 0.000634404, Final residual = 6.03403e-05, No Iterations 4
smoothSolver:  Solving for k, Initial residual = 0.00792362, Final residual = 0.00059348, No Iterations 6
ExecutionTime = 1.17 s  ClockTime = 2 s

scalarTransport execute: age
smoothSolver:  Solving for age, Initial residual = 0.00747747, Final residual = 0.000672187, No Iterations 13

Time = 94

smoothSolver:  Solving for Ux, Initial residual = 0.00809044, Final residual = 0.000564156, No Iterations 6
smoothSolver:  Solving for Uy, Initial residual = 0.00512581, Final residual = 0.000377388, No Iterations 6
GAMG:  Solving for p, Initial residual = 0.00616654, Final residual = 0.00039047, No Iterations 3
time step continuity errors : sum local = 0.000841391, global = 5.97469e-06, cumulative = 0.0134255
smoothSolver:  Solving for omega, Initial residual = 0.000636448, Final residual = 5.88807e-05, No Iterations 4
smoothSolver:  Solving for k, Initial residual = 0.00769821, Final residual = 0.000572917, No Iterations 6
ExecutionTime = 1.18 s  ClockTime = 2 s

scalarTransport execute: age
smoothSolver:  Solving for age, Initial residual = 0.00735146, Final residual = 0.000660878, No Iterations 13

Time = 95

smoothSolver:  Solving for Ux, Initial residual = 0.00778102, Final residual = 0.000540259, No Iterations 6
smoothSolver:  Solving for Uy, Initial residual = 0.00510078, Final residual = 0.000372775, No Iterations 6
GAMG:  Solving for p, Initial residual = 0.00615152, Final residual = 0.000387118, No Iterations 3
time step continuity errors : sum local = 0.000830143, global = 2.77256e-06, cumulative = 0.0134282
smoothSolver:  Solving for omega, Initial residual = 0.000636493, Final residual = 5.73876e-05, No Iterations 4
smoothSolver:  Solving for k, Initial residual = 0.00747778, Final residual = 0.000552672, No Iterations 6
ExecutionTime = 1.2 s  ClockTime = 2 s

scalarTransport execute: age
smoothSolver:  Solving for age, Initial residual = 0.00712687, Final residual = 0.000639418, No Iterations 13

Time = 96

smoothSolver:  Solving for Ux, Initial residual = 0.00746733, Final residual = 0.000516444, No Iterations 6
smoothSolver:  Solving for Uy, Initial residual = 0.00508231, Final residual = 0.000368482, No Iterations 6
[...]

Time = 603

smoothSolver:  Solving for Ux, Initial residual = 6.64402e-07, Final residual = 5.79937e-08, No Iterations 5
smoothSolver:  Solving for Uy, Initial residual = 5.53651e-07, Final residual = 5.45576e-08, No Iterations 5
GAMG:  Solving for p, Initial residual = 1.39577e-06, Final residual = 1.35527e-07, No Iterations 2
time step continuity errors : sum local = 2.4175e-07, global = 1.93283e-08, cumulative = 0.0196109
smoothSolver:  Solving for omega, Initial residual = 5.94325e-08, Final residual = 9.67284e-09, No Iterations 3
smoothSolver:  Solving for k, Initial residual = 1.05663e-07, Final residual = 8.06829e-09, No Iterations 5
ExecutionTime = 7.18 s  ClockTime = 8 s

scalarTransport execute: age
smoothSolver:  Solving for age, Initial residual = 0.000319754, Final residual = 2.97287e-05, No Iterations 15

Time = 604

smoothSolver:  Solving for Ux, Initial residual = 6.54737e-07, Final residual = 5.71491e-08, No Iterations 5
smoothSolver:  Solving for Uy, Initial residual = 5.45591e-07, Final residual = 5.37637e-08, No Iterations 5
GAMG:  Solving for p, Initial residual = 1.37558e-06, Final residual = 1.33568e-07, No Iterations 2
time step continuity errors : sum local = 2.38255e-07, global = 1.90456e-08, cumulative = 0.0196109
smoothSolver:  Solving for omega, Initial residual = 5.88078e-08, Final residual = 9.58721e-09, No Iterations 3
smoothSolver:  Solving for k, Initial residual = 1.04103e-07, Final residual = 7.94905e-09, No Iterations 5
ExecutionTime = 7.19 s  ClockTime = 8 s

scalarTransport execute: age
smoothSolver:  Solving for age, Initial residual = 0.000319122, Final residual = 2.96707e-05, No Iterations 15

Time = 605

smoothSolver:  Solving for Ux, Initial residual = 6.45208e-07, Final residual = 5.6317e-08, No Iterations 5
smoothSolver:  Solving for Uy, Initial residual = 5.37655e-07, Final residual = 5.29819e-08, No Iterations 5
GAMG:  Solving for p, Initial residual = 1.3557e-06, Final residual = 1.31633e-07, No Iterations 2
time step continuity errors : sum local = 2.34805e-07, global = 1.87673e-08, cumulative = 0.0196109
smoothSolver:  Solving for omega, Initial residual = 5.8143e-08, Final residual = 9.49207e-09, No Iterations 3
smoothSolver:  Solving for k, Initial residual = 1.0255e-07, Final residual = 7.8302e-09, No Iterations 5
ExecutionTime = 7.2 s  ClockTime = 8 s

scalarTransport execute: age
smoothSolver:  Solving for age, Initial residual = 0.000318493, Final residual = 2.96129e-05, No Iterations 15

Time = 606

smoothSolver:  Solving for Ux, Initial residual = 6.35816e-07, Final residual = 5.54974e-08, No Iterations 5
smoothSolver:  Solving for Uy, Initial residual = 5.29841e-07, Final residual = 5.22119e-08, No Iterations 5
GAMG:  Solving for p, Initial residual = 1.33611e-06, Final residual = 1.29724e-07, No Iterations 2
time step continuity errors : sum local = 2.314e-07, global = 1.84933e-08, cumulative = 0.019611
smoothSolver:  Solving for omega, Initial residual = 5.74503e-08, Final residual = 9.3898e-09, No Iterations 3
smoothSolver:  Solving for k, Initial residual = 1.01008e-07, Final residual = 7.71197e-09, No Iterations 5
ExecutionTime = 7.21 s  ClockTime = 8 s

scalarTransport execute: age
smoothSolver:  Solving for age, Initial residual = 0.000317866, Final residual = 2.95553e-05, No Iterations 15

Time = 607

smoothSolver:  Solving for Ux, Initial residual = 6.26561e-07, Final residual = 5.46903e-08, No Iterations 5
smoothSolver:  Solving for Uy, Initial residual = 5.22144e-07, Final residual = 5.14537e-08, No Iterations 5
GAMG:  Solving for p, Initial residual = 1.31681e-06, Final residual = 1.27841e-07, No Iterations 2
time step continuity errors : sum local = 2.28041e-07, global = 1.82235e-08, cumulative = 0.019611
smoothSolver:  Solving for omega, Initial residual = 5.67388e-08, Final residual = 9.28228e-09, No Iterations 3
smoothSolver:  Solving for k, Initial residual = 9.94785e-08, Final residual = 7.59463e-09, No Iterations 5
ExecutionTime = 7.22 s  ClockTime = 8 s

scalarTransport execute: age
smoothSolver:  Solving for age, Initial residual = 0.000317242, Final residual = 2.94978e-05, No Iterations 15

Time = 608

smoothSolver:  Solving for Ux, Initial residual = 6.17444e-07, Final residual = 5.38956e-08, No Iterations 5
smoothSolver:  Solving for Uy, Initial residual = 5.14562e-07, Final residual = 5.0707e-08, No Iterations 5
GAMG:  Solving for p, Initial residual = 1.29778e-06, Final residual = 1.25984e-07, No Iterations 2
time step continuity errors : sum local = 2.24728e-07, global = 1.79579e-08, cumulative = 0.019611
smoothSolver:  Solving for omega, Initial residual = 5.60152e-08, Final residual = 9.17105e-09, No Iterations 3
smoothSolver:  Solving for k, Initial residual = 9.79643e-08, Final residual = 7.47843e-09, No Iterations 5
ExecutionTime = 7.24 s  ClockTime = 8 s

scalarTransport execute: age
smoothSolver:  Solving for age, Initial residual = 0.000316619, Final residual = 2.94404e-05, No Iterations 15

Time = 609

smoothSolver:  Solving for Ux, Initial residual = 6.08464e-07, Final residual = 5.31132e-08, No Iterations 5
smoothSolver:  Solving for Uy, Initial residual = 5.07095e-07, Final residual = 4.99719e-08, No Iterations 5
GAMG:  Solving for p, Initial residual = 1.27903e-06, Final residual = 1.24154e-07, No Iterations 2
time step continuity errors : sum local = 2.21464e-07, global = 1.7696e-08, cumulative = 0.019611
smoothSolver:  Solving for omega, Initial residual = 5.52845e-08, Final residual = 9.05723e-09, No Iterations 3
smoothSolver:  Solving for k, Initial residual = 9.64686e-08, Final residual = 7.36364e-09, No Iterations 5
ExecutionTime = 7.25 s  ClockTime = 8 s

scalarTransport execute: age
smoothSolver:  Solving for age, Initial residual = 0.000315998, Final residual = 2.93832e-05, No Iterations 15

Time = 610

smoothSolver:  Solving for Ux, Initial residual = 5.99624e-07, Final residual = 5.2343e-08, No Iterations 5
smoothSolver:  Solving for Uy, Initial residual = 4.99744e-07, Final residual = 4.92485e-08, No Iterations 5
GAMG:  Solving for p, Initial residual = 1.26054e-06, Final residual = 1.22352e-07, No Iterations 2
time step continuity errors : sum local = 2.1825e-07, global = 1.74379e-08, cumulative = 0.019611
smoothSolver:  Solving for omega, Initial residual = 5.45506e-08, Final residual = 8.94171e-09, No Iterations 3
smoothSolver:  Solving for k, Initial residual = 9.49937e-08, Final residual = 7.25049e-09, No Iterations 5
ExecutionTime = 7.26 s  ClockTime = 8 s

scalarTransport execute: age
smoothSolver:  Solving for age, Initial residual = 0.000315378, Final residual = 2.93261e-05, No Iterations 15

Time = 611

smoothSolver:  Solving for Ux, Initial residual = 5.90925e-07, Final residual = 5.15847e-08, No Iterations 5
smoothSolver:  Solving for Uy, Initial residual = 4.92511e-07, Final residual = 4.8537e-08, No Iterations 5
GAMG:  Solving for p, Initial residual = 1.24233e-06, Final residual = 1.20579e-07, No Iterations 2
time step continuity errors : sum local = 2.15088e-07, global = 1.71832e-08, cumulative = 0.0196111
smoothSolver:  Solving for omega, Initial residual = 5.38161e-08, Final residual = 8.82523e-09, No Iterations 3
smoothSolver:  Solving for k, Initial residual = 9.3542e-08, Final residual = 7.13918e-09, No Iterations 5
ExecutionTime = 7.27 s  ClockTime = 8 s

scalarTransport execute: age
smoothSolver:  Solving for age, Initial residual = 0.000314761, Final residual = 2.92693e-05, No Iterations 15

Time = 612

smoothSolver:  Solving for Ux, Initial residual = 5.82366e-07, Final residual = 5.08382e-08, No Iterations 5
smoothSolver:  Solving for Uy, Initial residual = 4.85398e-07, Final residual = 4.78373e-08, No Iterations 5
GAMG:  Solving for p, Initial residual = 1.22439e-06, Final residual = 1.18837e-07, No Iterations 2
time step continuity errors : sum local = 2.1198e-07, global = 1.69318e-08, cumulative = 0.0196111
smoothSolver:  Solving for omega, Initial residual = 5.30835e-08, Final residual = 8.70833e-09, No Iterations 3
smoothSolver:  Solving for k, Initial residual = 9.21157e-08, Final residual = 7.02987e-09, No Iterations 5
ExecutionTime = 7.28 s  ClockTime = 8 s

scalarTransport execute: age
smoothSolver:  Solving for age, Initial residual = 0.000314148, Final residual = 2.92127e-05, No Iterations 15

Time = 613

smoothSolver:  Solving for Ux, Initial residual = 5.73946e-07, Final residual = 5.01032e-08, No Iterations 5
smoothSolver:  Solving for Uy, Initial residual = 4.78406e-07, Final residual = 4.71496e-08, No Iterations 5
GAMG:  Solving for p, Initial residual = 1.20674e-06, Final residual = 1.17126e-07, No Iterations 2
time step continuity errors : sum local = 2.08927e-07, global = 1.66837e-08, cumulative = 0.0196111
smoothSolver:  Solving for omega, Initial residual = 5.23546e-08, Final residual = 8.59147e-09, No Iterations 3
smoothSolver:  Solving for k, Initial residual = 9.07165e-08, Final residual = 6.92266e-09, No Iterations 5
ExecutionTime = 7.29 s  ClockTime = 8 s

scalarTransport execute: age
smoothSolver:  Solving for age, Initial residual = 0.000313537, Final residual = 2.91564e-05, No Iterations 15

Time = 614

smoothSolver:  Solving for Ux, Initial residual = 5.65663e-07, Final residual = 4.93792e-08, No Iterations 5
smoothSolver:  Solving for Uy, Initial residual = 4.71534e-07, Final residual = 4.64737e-08, No Iterations 5
GAMG:  Solving for p, Initial residual = 1.18937e-06, Final residual = 1.15445e-07, No Iterations 2
time step continuity errors : sum local = 2.0593e-07, global = 1.6439e-08, cumulative = 0.0196111
smoothSolver:  Solving for omega, Initial residual = 5.16307e-08, Final residual = 8.47498e-09, No Iterations 3
smoothSolver:  Solving for k, Initial residual = 8.93455e-08, Final residual = 6.81765e-09, No Iterations 5
ExecutionTime = 7.31 s  ClockTime = 8 s

scalarTransport execute: age
smoothSolver:  Solving for age, Initial residual = 0.000312929, Final residual = 2.91003e-05, No Iterations 15

Time = 615

smoothSolver:  Solving for Ux, Initial residual = 5.57514e-07, Final residual = 4.86661e-08, No Iterations 5
smoothSolver:  Solving for Uy, Initial residual = 4.64782e-07, Final residual = 4.58093e-08, No Iterations 5
GAMG:  Solving for p, Initial residual = 1.17227e-06, Final residual = 1.13796e-07, No Iterations 2
time step continuity errors : sum local = 2.02987e-07, global = 1.61977e-08, cumulative = 0.0196111
smoothSolver:  Solving for omega, Initial residual = 5.09128e-08, Final residual = 8.35915e-09, No Iterations 3
smoothSolver:  Solving for k, Initial residual = 8.80033e-08, Final residual = 6.71487e-09, No Iterations 5
ExecutionTime = 7.32 s  ClockTime = 8 s

scalarTransport execute: age
smoothSolver:  Solving for age, Initial residual = 0.000312323, Final residual = 2.90444e-05, No Iterations 15

Time = 616

smoothSolver:  Solving for Ux, Initial residual = 5.49495e-07, Final residual = 4.79635e-08, No Iterations 5
smoothSolver:  Solving for Uy, Initial residual = 4.58146e-07, Final residual = 4.51561e-08, No Iterations 5
GAMG:  Solving for p, Initial residual = 1.15546e-06, Final residual = 1.12175e-07, No Iterations 2
time step continuity errors : sum local = 2.00097e-07, global = 1.596e-08, cumulative = 0.0196111
smoothSolver:  Solving for omega, Initial residual = 5.0202e-08, Final residual = 8.24423e-09, No Iterations 3
smoothSolver:  Solving for k, Initial residual = 8.66901e-08, Final residual = 6.61434e-09, No Iterations 5
ExecutionTime = 7.33 s  ClockTime = 8 s

scalarTransport execute: age
smoothSolver:  Solving for age, Initial residual = 0.000311719, Final residual = 2.89887e-05, No Iterations 15

Time = 617

smoothSolver:  Solving for Ux, Initial residual = 5.416e-07, Final residual = 4.72711e-08, No Iterations 5
smoothSolver:  Solving for Uy, Initial residual = 4.51621e-07, Final residual = 4.45135e-08, No Iterations 5
GAMG:  Solving for p, Initial residual = 1.13891e-06, Final residual = 1.10583e-07, No Iterations 2
time step continuity errors : sum local = 1.97257e-07, global = 1.5726e-08, cumulative = 0.0196112
smoothSolver:  Solving for omega, Initial residual = 4.94988e-08, Final residual = 8.13037e-09, No Iterations 3
smoothSolver:  Solving for k, Initial residual = 8.54053e-08, Final residual = 6.51602e-09, No Iterations 5
ExecutionTime = 7.34 s  ClockTime = 8 s

scalarTransport execute: age
smoothSolver:  Solving for age, Initial residual = 0.000311118, Final residual = 2.89332e-05, No Iterations 15

Time = 618

smoothSolver:  Solving for Ux, Initial residual = 5.33825e-07, Final residual = 4.65886e-08, No Iterations 5
smoothSolver:  Solving for Uy, Initial residual = 4.45201e-07, Final residual = 4.38809e-08, No Iterations 5
GAMG:  Solving for p, Initial residual = 1.12263e-06, Final residual = 1.09017e-07, No Iterations 2
time step continuity errors : sum local = 1.94464e-07, global = 1.54957e-08, cumulative = 0.0196112
smoothSolver:  Solving for omega, Initial residual = 4.88035e-08, Final residual = 8.01771e-09, No Iterations 3
smoothSolver:  Solving for k, Initial residual = 8.41482e-08, Final residual = 6.41987e-09, No Iterations 5
ExecutionTime = 7.35 s  ClockTime = 8 s

scalarTransport execute: age
smoothSolver:  Solving for age, Initial residual = 0.000310519, Final residual = 2.88779e-05, No Iterations 15

Time = 619

smoothSolver:  Solving for Ux, Initial residual = 5.26163e-07, Final residual = 4.59158e-08, No Iterations 5
smoothSolver:  Solving for Uy, Initial residual = 4.38878e-07, Final residual = 4.32576e-08, No Iterations 5
GAMG:  Solving for p, Initial residual = 1.10658e-06, Final residual = 1.07475e-07, No Iterations 2
time step continuity errors : sum local = 1.91713e-07, global = 1.52693e-08, cumulative = 0.0196112
smoothSolver:  Solving for omega, Initial residual = 4.81165e-08, Final residual = 7.90634e-09, No Iterations 3
smoothSolver:  Solving for k, Initial residual = 8.29177e-08, Final residual = 6.32581e-09, No Iterations 5
ExecutionTime = 7.36 s  ClockTime = 8 s

scalarTransport execute: age
smoothSolver:  Solving for age, Initial residual = 0.000309922, Final residual = 2.88228e-05, No Iterations 15

Time = 620

smoothSolver:  Solving for Ux, Initial residual = 5.1861e-07, Final residual = 4.52525e-08, No Iterations 5
smoothSolver:  Solving for Uy, Initial residual = 4.32644e-07, Final residual = 4.26429e-08, No Iterations 5
GAMG:  Solving for p, Initial residual = 1.09077e-06, Final residual = 1.05954e-07, No Iterations 2
time step continuity errors : sum local = 1.89e-07, global = 1.50466e-08, cumulative = 0.0196112
smoothSolver:  Solving for omega, Initial residual = 4.74379e-08, Final residual = 7.79633e-09, No Iterations 3
smoothSolver:  Solving for k, Initial residual = 8.17122e-08, Final residual = 6.23378e-09, No Iterations 5
ExecutionTime = 7.37 s  ClockTime = 8 s

scalarTransport execute: age
smoothSolver:  Solving for age, Initial residual = 0.000309327, Final residual = 2.87679e-05, No Iterations 15

Time = 621

smoothSolver:  Solving for Ux, Initial residual = 5.11162e-07, Final residual = 4.45985e-08, No Iterations 5
smoothSolver:  Solving for Uy, Initial residual = 4.26491e-07, Final residual = 4.2036e-08, No Iterations 5
GAMG:  Solving for p, Initial residual = 1.07518e-06, Final residual = 1.04453e-07, No Iterations 2
time step continuity errors : sum local = 1.86322e-07, global = 1.48276e-08, cumulative = 0.0196112
smoothSolver:  Solving for omega, Initial residual = 4.67676e-08, Final residual = 7.6877e-09, No Iterations 3
smoothSolver:  Solving for k, Initial residual = 8.05305e-08, Final residual = 6.14364e-09, No Iterations 5
ExecutionTime = 7.39 s  ClockTime = 8 s

scalarTransport execute: age
smoothSolver:  Solving for age, Initial residual = 0.000308734, Final residual = 2.87132e-05, No Iterations 15

Time = 622

smoothSolver:  Solving for Ux, Initial residual = 5.03814e-07, Final residual = 4.39537e-08, No Iterations 5
smoothSolver:  Solving for Uy, Initial residual = 4.20413e-07, Final residual = 4.14362e-08, No Iterations 5
GAMG:  Solving for p, Initial residual = 1.05979e-06, Final residual = 1.02968e-07, No Iterations 2
time step continuity errors : sum local = 1.83674e-07, global = 1.46122e-08, cumulative = 0.0196112
smoothSolver:  Solving for omega, Initial residual = 4.61055e-08, Final residual = 7.58045e-09, No Iterations 3
smoothSolver:  Solving for k, Initial residual = 7.93709e-08, Final residual = 9.96364e-09, No Iterations 4
ExecutionTime = 7.4 s  ClockTime = 8 s

scalarTransport execute: age
smoothSolver:  Solving for age, Initial residual = 0.000308143, Final residual = 2.86588e-05, No Iterations 15

Time = 623

smoothSolver:  Solving for Ux, Initial residual = 4.96575e-07, Final residual = 4.33218e-08, No Iterations 5
smoothSolver:  Solving for Uy, Initial residual = 4.14428e-07, Final residual = 4.08468e-08, No Iterations 5
GAMG:  Solving for p, Initial residual = 1.04358e-06, Final residual = 1.01467e-07, No Iterations 2
time step continuity errors : sum local = 1.80997e-07, global = 1.44004e-08, cumulative = 0.0196112
smoothSolver:  Solving for omega, Initial residual = 4.53652e-08, Final residual = 7.46921e-09, No Iterations 3
smoothSolver:  Solving for k, Initial residual = 7.86618e-08, Final residual = 9.87623e-09, No Iterations 4
ExecutionTime = 7.41 s  ClockTime = 8 s

scalarTransport execute: age
smoothSolver:  Solving for age, Initial residual = 0.000307554, Final residual = 2.86045e-05, No Iterations 15

Time = 624

smoothSolver:  Solving for Ux, Initial residual = 4.89416e-07, Final residual = 4.26955e-08, No Iterations 5
smoothSolver:  Solving for Uy, Initial residual = 4.08474e-07, Final residual = 4.026e-08, No Iterations 5
GAMG:  Solving for p, Initial residual = 1.02819e-06, Final residual = 9.99856e-08, No Iterations 2
time step continuity errors : sum local = 1.78354e-07, global = 1.41941e-08, cumulative = 0.0196113
smoothSolver:  Solving for omega, Initial residual = 4.47061e-08, Final residual = 7.36306e-09, No Iterations 3
smoothSolver:  Solving for k, Initial residual = 7.79472e-08, Final residual = 9.78873e-09, No Iterations 4
ExecutionTime = 7.42 s  ClockTime = 8 s

scalarTransport execute: age
smoothSolver:  Solving for age, Initial residual = 0.000306968, Final residual = 2.85504e-05, No Iterations 15

Time = 625

smoothSolver:  Solving for Ux, Initial residual = 4.82347e-07, Final residual = 4.2077e-08, No Iterations 5
smoothSolver:  Solving for Uy, Initial residual = 4.02591e-07, Final residual = 3.96787e-08, No Iterations 5
GAMG:  Solving for p, Initial residual = 1.01327e-06, Final residual = 9.85351e-08, No Iterations 2
time step continuity errors : sum local = 1.75766e-07, global = 1.39901e-08, cumulative = 0.0196113
smoothSolver:  Solving for omega, Initial residual = 4.40677e-08, Final residual = 7.25946e-09, No Iterations 3
smoothSolver:  Solving for k, Initial residual = 7.72128e-08, Final residual = 9.69935e-09, No Iterations 4
ExecutionTime = 7.43 s  ClockTime = 8 s

scalarTransport execute: age
smoothSolver:  Solving for age, Initial residual = 0.000306384, Final residual = 2.84966e-05, No Iterations 15

Time = 626

smoothSolver:  Solving for Ux, Initial residual = 4.75364e-07, Final residual = 4.14664e-08, No Iterations 5
smoothSolver:  Solving for Uy, Initial residual = 3.9677e-07, Final residual = 3.91031e-08, No Iterations 5
GAMG:  Solving for p, Initial residual = 9.98676e-07, Final residual = 9.71116e-08, No Iterations 2
time step continuity errors : sum local = 1.73227e-07, global = 1.37882e-08, cumulative = 0.0196113
smoothSolver:  Solving for omega, Initial residual = 4.34424e-08, Final residual = 7.15778e-09, No Iterations 3
smoothSolver:  Solving for k, Initial residual = 7.64532e-08, Final residual = 9.60743e-09, No Iterations 4
ExecutionTime = 7.44 s  ClockTime = 8 s


SIMPLE solution converged in 626 iterations

scalarTransport execute: age
smoothSolver:  Solving for age, Initial residual = 0.000305802, Final residual = 2.84429e-05, No Iterations 15

End

