/*---------------------------------------------------------------------------*\
| =========                 |                                                 |
| \\      /  F ield         | OpenFOAM: The Open Source CFD Toolbox           |
|  \\    /   O peration     | Version:  v2012                                 |
|   \\  /    A nd           | Website:  www.openfoam.com                      |
|    \\/     M anipulation  |                                                 |
\*---------------------------------------------------------------------------*/
Build  : _7bdb509494-20201222 OPENFOAM=2012
Arch   : "LSB;label=32;scalar=64"
Exec   : simpleFoam
Date   : Feb 01 2023
Time   : 11:08:48
Host   : johnsPC
PID    : 2891
I/O    : uncollated
Case   : /home/john/of_cases/baffle/cases/0_7Re10_5
nProcs : 1
trapFpe: Floating point exception trapping enabled (FOAM_SIGFPE).
fileModificationChecking : Monitoring run-time modified files using timeStampMaster (fileModificationSkew 5, maxFileModificationPolls 20)
allowSystemOperations : Allowing user-supplied system call operations

// * * * * * * * * * * * * * * * * * * * * * * * * * * * * * * * * * * * * * //
Create time

Create mesh for time = 0


SIMPLE: convergence criteria
    field p	 tolerance 1e-06
    field U	 tolerance 1e-06
    field "(k|epsilon|omega|f|v2|age)"	 tolerance 1e-05

Reading field p

Reading field U

Reading/calculating face flux field phi

Selecting incompressible transport model Newtonian
Selecting turbulence model type RAS
Selecting RAS turbulence model kOmegaSST
Selecting patchDistMethod meshWave
RAS
{
    RASModel        kOmegaSST;
    turbulence      on;
    printCoeffs     on;
    alphaK1         0.85;
    alphaK2         1;
    alphaOmega1     0.5;
    alphaOmega2     0.856;
    gamma1          0.555556;
    gamma2          0.44;
    beta1           0.075;
    beta2           0.0828;
    betaStar        0.09;
    a1              0.31;
    b1              1;
    c1              10;
    F3              false;
    decayControl    false;
    kInf            0;
    omegaInf        0;
}

No MRF models present

No finite volume options present

Starting time loop

Selecting finite volume options type scalarSemiImplicitSource
    Source: unitySource
    - selecting all cells
    - selected 6036 cell(s) with volume 0.03165
Time = 1

smoothSolver:  Solving for Ux, Initial residual = 0, Final residual = 0, No Iterations 0
smoothSolver:  Solving for Uy, Initial residual = 1, Final residual = 0.0107093, No Iterations 1
GAMG:  Solving for p, Initial residual = 1, Final residual = 0.0739754, No Iterations 8
time step continuity errors : sum local = 0.00467459, global = -0.000888139, cumulative = -0.000888139
smoothSolver:  Solving for omega, Initial residual = 0.0921673, Final residual = 0.0058566, No Iterations 3
smoothSolver:  Solving for k, Initial residual = 1, Final residual = 0.067365, No Iterations 3
ExecutionTime = 0.03 s  ClockTime = 0 s

scalarTransport execute: age
smoothSolver:  Solving for age, Initial residual = 1, Final residual = 0.0834363, No Iterations 6

Time = 2

smoothSolver:  Solving for Ux, Initial residual = 0.378501, Final residual = 0.0250097, No Iterations 3
smoothSolver:  Solving for Uy, Initial residual = 0.216243, Final residual = 0.0159358, No Iterations 3
GAMG:  Solving for p, Initial residual = 0.333821, Final residual = 0.0123317, No Iterations 4
time step continuity errors : sum local = 0.0142522, global = -0.00409533, cumulative = -0.00498347
smoothSolver:  Solving for omega, Initial residual = 0.0528548, Final residual = 0.00382554, No Iterations 3
smoothSolver:  Solving for k, Initial residual = 0.401267, Final residual = 0.0242274, No Iterations 3
ExecutionTime = 0.04 s  ClockTime = 0 s

scalarTransport execute: age
smoothSolver:  Solving for age, Initial residual = 0.608949, Final residual = 0.0529264, No Iterations 6

Time = 3

smoothSolver:  Solving for Ux, Initial residual = 0.23732, Final residual = 0.014648, No Iterations 3
smoothSolver:  Solving for Uy, Initial residual = 0.125998, Final residual = 0.00968361, No Iterations 3
GAMG:  Solving for p, Initial residual = 0.105654, Final residual = 0.00709883, No Iterations 2
time step continuity errors : sum local = 0.0238992, global = -0.00556949, cumulative = -0.010553
smoothSolver:  Solving for omega, Initial residual = 0.044043, Final residual = 0.00252731, No Iterations 3
smoothSolver:  Solving for k, Initial residual = 0.275075, Final residual = 0.0138113, No Iterations 3
ExecutionTime = 0.05 s  ClockTime = 0 s

scalarTransport execute: age
smoothSolver:  Solving for age, Initial residual = 0.34896, Final residual = 0.0298311, No Iterations 7

Time = 4

smoothSolver:  Solving for Ux, Initial residual = 0.197752, Final residual = 0.0130597, No Iterations 3
smoothSolver:  Solving for Uy, Initial residual = 0.114973, Final residual = 0.00939273, No Iterations 3
GAMG:  Solving for p, Initial residual = 0.109482, Final residual = 0.00586365, No Iterations 3
time step continuity errors : sum local = 0.0182327, global = -0.00269575, cumulative = -0.0132487
smoothSolver:  Solving for omega, Initial residual = 0.0493909, Final residual = 0.00233669, No Iterations 3
smoothSolver:  Solving for k, Initial residual = 0.208429, Final residual = 0.010954, No Iterations 3
ExecutionTime = 0.06 s  ClockTime = 0 s

scalarTransport execute: age
smoothSolver:  Solving for age, Initial residual = 0.250083, Final residual = 0.0244642, No Iterations 7

Time = 5

smoothSolver:  Solving for Ux, Initial residual = 0.15037, Final residual = 0.00940114, No Iterations 3
smoothSolver:  Solving for Uy, Initial residual = 0.0965434, Final residual = 0.00905277, No Iterations 3
GAMG:  Solving for p, Initial residual = 0.0944521, Final residual = 0.00378944, No Iterations 3
time step continuity errors : sum local = 0.0136953, global = -0.00159546, cumulative = -0.0148442
smoothSolver:  Solving for omega, Initial residual = 0.0396395, Final residual = 0.00193908, No Iterations 3
smoothSolver:  Solving for k, Initial residual = 0.17781, Final residual = 0.00932076, No Iterations 3
ExecutionTime = 0.06 s  ClockTime = 0 s

scalarTransport execute: age
smoothSolver:  Solving for age, Initial residual = 0.199154, Final residual = 0.0170683, No Iterations 8

Time = 6

smoothSolver:  Solving for Ux, Initial residual = 0.122623, Final residual = 0.00771291, No Iterations 3
smoothSolver:  Solving for Uy, Initial residual = 0.0841479, Final residual = 0.00787801, No Iterations 3
GAMG:  Solving for p, Initial residual = 0.0829672, Final residual = 0.003391, No Iterations 3
time step continuity errors : sum local = 0.0133738, global = -0.000968109, cumulative = -0.0158123
smoothSolver:  Solving for omega, Initial residual = 0.0389811, Final residual = 0.00375179, No Iterations 2
smoothSolver:  Solving for k, Initial residual = 0.175149, Final residual = 0.00787652, No Iterations 3
ExecutionTime = 0.07 s  ClockTime = 0 s

scalarTransport execute: age
smoothSolver:  Solving for age, Initial residual = 0.172567, Final residual = 0.0152424, No Iterations 9

Time = 7

smoothSolver:  Solving for Ux, Initial residual = 0.106963, Final residual = 0.00674471, No Iterations 3
smoothSolver:  Solving for Uy, Initial residual = 0.0765856, Final residual = 0.00749975, No Iterations 3
GAMG:  Solving for p, Initial residual = 0.0763818, Final residual = 0.0074897, No Iterations 2
time step continuity errors : sum local = 0.0313226, global = -0.000272546, cumulative = -0.0160848
smoothSolver:  Solving for omega, Initial residual = 0.0335707, Final residual = 0.00144096, No Iterations 3
smoothSolver:  Solving for k, Initial residual = 0.15616, Final residual = 0.00667769, No Iterations 3
ExecutionTime = 0.09 s  ClockTime = 0 s

scalarTransport execute: age
smoothSolver:  Solving for age, Initial residual = 0.148143, Final residual = 0.01422, No Iterations 8

Time = 8

smoothSolver:  Solving for Ux, Initial residual = 0.0991278, Final residual = 0.00651295, No Iterations 3
smoothSolver:  Solving for Uy, Initial residual = 0.0693341, Final residual = 0.00396284, No Iterations 4
GAMG:  Solving for p, Initial residual = 0.0782182, Final residual = 0.00352815, No Iterations 3
time step continuity errors : sum local = 0.0152428, global = -0.000351309, cumulative = -0.0164361
smoothSolver:  Solving for omega, Initial residual = 0.0320745, Final residual = 0.00305632, No Iterations 2
smoothSolver:  Solving for k, Initial residual = 0.156418, Final residual = 0.0151812, No Iterations 2
ExecutionTime = 0.1 s  ClockTime = 0 s

scalarTransport execute: age
smoothSolver:  Solving for age, Initial residual = 0.14531, Final residual = 0.0144408, No Iterations 8

Time = 9

smoothSolver:  Solving for Ux, Initial residual = 0.0916116, Final residual = 0.00608367, No Iterations 3
smoothSolver:  Solving for Uy, Initial residual = 0.0639, Final residual = 0.00367349, No Iterations 4
GAMG:  Solving for p, Initial residual = 0.0735248, Final residual = 0.0031198, No Iterations 3
time step continuity errors : sum local = 0.0147164, global = 0.000325242, cumulative = -0.0161109
smoothSolver:  Solving for omega, Initial residual = 0.0304347, Final residual = 0.00293921, No Iterations 2
smoothSolver:  Solving for k, Initial residual = 0.153153, Final residual = 0.0145325, No Iterations 2
ExecutionTime = 0.11 s  ClockTime = 0 s

scalarTransport execute: age
smoothSolver:  Solving for age, Initial residual = 0.131248, Final residual = 0.0115429, No Iterations 10

Time = 10

smoothSolver:  Solving for Ux, Initial residual = 0.0822261, Final residual = 0.00577608, No Iterations 3
smoothSolver:  Solving for Uy, Initial residual = 0.0596191, Final residual = 0.003338, No Iterations 4
GAMG:  Solving for p, Initial residual = 0.0716992, Final residual = 0.00317645, No Iterations 3
time step continuity errors : sum local = 0.0154826, global = 0.00128535, cumulative = -0.0148255
smoothSolver:  Solving for omega, Initial residual = 0.0266369, Final residual = 0.00127078, No Iterations 3
smoothSolver:  Solving for k, Initial residual = 0.146219, Final residual = 0.0134045, No Iterations 2
ExecutionTime = 0.12 s  ClockTime = 0 s

scalarTransport execute: age
smoothSolver:  Solving for age, Initial residual = 0.124596, Final residual = 0.0114058, No Iterations 10

Time = 11

smoothSolver:  Solving for Ux, Initial residual = 0.0740061, Final residual = 0.00541358, No Iterations 3
smoothSolver:  Solving for Uy, Initial residual = 0.0555858, Final residual = 0.00541264, No Iterations 3
GAMG:  Solving for p, Initial residual = 0.0678831, Final residual = 0.00285254, No Iterations 3
time step continuity errors : sum local = 0.0141085, global = 0.00143339, cumulative = -0.0133921
smoothSolver:  Solving for omega, Initial residual = 0.0254618, Final residual = 0.00113536, No Iterations 3
smoothSolver:  Solving for k, Initial residual = 0.142675, Final residual = 0.0125633, No Iterations 2
ExecutionTime = 0.13 s  ClockTime = 0 s

scalarTransport execute: age
smoothSolver:  Solving for age, Initial residual = 0.11843, Final residual = 0.0113724, No Iterations 10

Time = 12

smoothSolver:  Solving for Ux, Initial residual = 0.0675413, Final residual = 0.00486817, No Iterations 3
smoothSolver:  Solving for Uy, Initial residual = 0.0521051, Final residual = 0.00480708, No Iterations 3
GAMG:  Solving for p, Initial residual = 0.062742, Final residual = 0.00538703, No Iterations 2
time step continuity errors : sum local = 0.0270592, global = 0.00233161, cumulative = -0.0110605
smoothSolver:  Solving for omega, Initial residual = 0.0223613, Final residual = 0.00101513, No Iterations 3
smoothSolver:  Solving for k, Initial residual = 0.131214, Final residual = 0.0120386, No Iterations 2
ExecutionTime = 0.14 s  ClockTime = 0 s

scalarTransport execute: age
smoothSolver:  Solving for age, Initial residual = 0.113934, Final residual = 0.011255, No Iterations 10

Time = 13

smoothSolver:  Solving for Ux, Initial residual = 0.0605303, Final residual = 0.00452165, No Iterations 3
smoothSolver:  Solving for Uy, Initial residual = 0.0470128, Final residual = 0.00405283, No Iterations 3
GAMG:  Solving for p, Initial residual = 0.0636076, Final residual = 0.00562645, No Iterations 2
time step continuity errors : sum local = 0.0279061, global = 0.00256088, cumulative = -0.00849965
smoothSolver:  Solving for omega, Initial residual = 0.0212039, Final residual = 0.00206714, No Iterations 2
smoothSolver:  Solving for k, Initial residual = 0.124995, Final residual = 0.0112243, No Iterations 2
ExecutionTime = 0.15 s  ClockTime = 0 s

scalarTransport execute: age
smoothSolver:  Solving for age, Initial residual = 0.109485, Final residual = 0.00980175, No Iterations 11

Time = 14

smoothSolver:  Solving for Ux, Initial residual = 0.0556905, Final residual = 0.00394873, No Iterations 3
smoothSolver:  Solving for Uy, Initial residual = 0.0423635, Final residual = 0.00339095, No Iterations 3
GAMG:  Solving for p, Initial residual = 0.0580504, Final residual = 0.00483071, No Iterations 2
time step continuity errors : sum local = 0.0247248, global = 0.00288795, cumulative = -0.0056117
smoothSolver:  Solving for omega, Initial residual = 0.019543, Final residual = 0.00189458, No Iterations 2
smoothSolver:  Solving for k, Initial residual = 0.11475, Final residual = 0.0105438, No Iterations 2
ExecutionTime = 0.16 s  ClockTime = 0 s

scalarTransport execute: age
smoothSolver:  Solving for age, Initial residual = 0.103883, Final residual = 0.00978846, No Iterations 11

Time = 15

smoothSolver:  Solving for Ux, Initial residual = 0.0502525, Final residual = 0.00339225, No Iterations 3
smoothSolver:  Solving for Uy, Initial residual = 0.039157, Final residual = 0.00304299, No Iterations 3
GAMG:  Solving for p, Initial residual = 0.0579566, Final residual = 0.00465716, No Iterations 2
time step continuity errors : sum local = 0.0231743, global = 0.00298642, cumulative = -0.00262528
smoothSolver:  Solving for omega, Initial residual = 0.0179317, Final residual = 0.00172726, No Iterations 2
smoothSolver:  Solving for k, Initial residual = 0.103804, Final residual = 0.00970043, No Iterations 2
ExecutionTime = 0.17 s  ClockTime = 0 s

scalarTransport execute: age
smoothSolver:  Solving for age, Initial residual = 0.0975223, Final residual = 0.0085809, No Iterations 12

Time = 16

smoothSolver:  Solving for Ux, Initial residual = 0.0463257, Final residual = 0.00296018, No Iterations 3
smoothSolver:  Solving for Uy, Initial residual = 0.0372058, Final residual = 0.0029736, No Iterations 3
GAMG:  Solving for p, Initial residual = 0.0582556, Final residual = 0.00468985, No Iterations 2
time step continuity errors : sum local = 0.0225435, global = 0.00315702, cumulative = 0.000531742
smoothSolver:  Solving for omega, Initial residual = 0.0165716, Final residual = 0.0015748, No Iterations 2
smoothSolver:  Solving for k, Initial residual = 0.0975404, Final residual = 0.0094042, No Iterations 2
ExecutionTime = 0.18 s  ClockTime = 0 s

scalarTransport execute: age
smoothSolver:  Solving for age, Initial residual = 0.0958717, Final residual = 0.00958706, No Iterations 11

Time = 17

smoothSolver:  Solving for Ux, Initial residual = 0.0425662, Final residual = 0.00261327, No Iterations 3
smoothSolver:  Solving for Uy, Initial residual = 0.0361576, Final residual = 0.00304042, No Iterations 3
GAMG:  Solving for p, Initial residual = 0.0588384, Final residual = 0.00480613, No Iterations 2
time step continuity errors : sum local = 0.0218814, global = 0.00319069, cumulative = 0.00372244
smoothSolver:  Solving for omega, Initial residual = 0.0153545, Final residual = 0.00152064, No Iterations 2
smoothSolver:  Solving for k, Initial residual = 0.089418, Final residual = 0.0040811, No Iterations 3
ExecutionTime = 0.19 s  ClockTime = 0 s

scalarTransport execute: age
smoothSolver:  Solving for age, Initial residual = 0.0912169, Final residual = 0.00889825, No Iterations 11

Time = 18

smoothSolver:  Solving for Ux, Initial residual = 0.0399649, Final residual = 0.00245639, No Iterations 3
smoothSolver:  Solving for Uy, Initial residual = 0.0349904, Final residual = 0.00311061, No Iterations 3
GAMG:  Solving for p, Initial residual = 0.0581078, Final residual = 0.00459347, No Iterations 2
time step continuity errors : sum local = 0.0202276, global = 0.00324452, cumulative = 0.00696696
smoothSolver:  Solving for omega, Initial residual = 0.0139931, Final residual = 0.000679846, No Iterations 3
smoothSolver:  Solving for k, Initial residual = 0.0830962, Final residual = 0.00404103, No Iterations 3
ExecutionTime = 0.2 s  ClockTime = 0 s

scalarTransport execute: age
smoothSolver:  Solving for age, Initial residual = 0.0866605, Final residual = 0.00807363, No Iterations 11

Time = 19

smoothSolver:  Solving for Ux, Initial residual = 0.037541, Final residual = 0.00240578, No Iterations 3
smoothSolver:  Solving for Uy, Initial residual = 0.033872, Final residual = 0.00316436, No Iterations 3
GAMG:  Solving for p, Initial residual = 0.0579897, Final residual = 0.00439953, No Iterations 2
time step continuity errors : sum local = 0.0184936, global = 0.00324234, cumulative = 0.0102093
smoothSolver:  Solving for omega, Initial residual = 0.0128995, Final residual = 0.000643821, No Iterations 3
smoothSolver:  Solving for k, Initial residual = 0.0785554, Final residual = 0.0039251, No Iterations 3
ExecutionTime = 0.21 s  ClockTime = 0 s

scalarTransport execute: age
smoothSolver:  Solving for age, Initial residual = 0.084477, Final residual = 0.00735307, No Iterations 11

Time = 20

smoothSolver:  Solving for Ux, Initial residual = 0.0356952, Final residual = 0.00235466, No Iterations 3
smoothSolver:  Solving for Uy, Initial residual = 0.0327896, Final residual = 0.00314504, No Iterations 3
GAMG:  Solving for p, Initial residual = 0.057838, Final residual = 0.00429708, No Iterations 2
time step continuity errors : sum local = 0.0171458, global = 0.00320048, cumulative = 0.0134098
smoothSolver:  Solving for omega, Initial residual = 0.0118367, Final residual = 0.000612093, No Iterations 3
smoothSolver:  Solving for k, Initial residual = 0.0752237, Final residual = 0.00374303, No Iterations 3
ExecutionTime = 0.22 s  ClockTime = 0 s

scalarTransport execute: age
smoothSolver:  Solving for age, Initial residual = 0.080892, Final residual = 0.00784201, No Iterations 10

Time = 21

smoothSolver:  Solving for Ux, Initial residual = 0.0338705, Final residual = 0.00224745, No Iterations 3
smoothSolver:  Solving for Uy, Initial residual = 0.0316414, Final residual = 0.00306718, No Iterations 3
GAMG:  Solving for p, Initial residual = 0.0584847, Final residual = 0.00434418, No Iterations 2
time step continuity errors : sum local = 0.0163597, global = 0.00321405, cumulative = 0.0166238
smoothSolver:  Solving for omega, Initial residual = 0.0110827, Final residual = 0.000573075, No Iterations 3
smoothSolver:  Solving for k, Initial residual = 0.070629, Final residual = 0.00349437, No Iterations 3
ExecutionTime = 0.23 s  ClockTime = 0 s

scalarTransport execute: age
smoothSolver:  Solving for age, Initial residual = 0.0792279, Final residual = 0.00726113, No Iterations 10

Time = 22

smoothSolver:  Solving for Ux, Initial residual = 0.0319535, Final residual = 0.00210627, No Iterations 3
smoothSolver:  Solving for Uy, Initial residual = 0.0302781, Final residual = 0.00293008, No Iterations 3
GAMG:  Solving for p, Initial residual = 0.0616499, Final residual = 0.00413933, No Iterations 2
time step continuity errors : sum local = 0.0140924, global = 0.00292536, cumulative = 0.0195492
smoothSolver:  Solving for omega, Initial residual = 0.0100191, Final residual = 0.000512994, No Iterations 3
smoothSolver:  Solving for k, Initial residual = 0.0663376, Final residual = 0.00325896, No Iterations 3
ExecutionTime = 0.24 s  ClockTime = 0 s

scalarTransport execute: age
smoothSolver:  Solving for age, Initial residual = 0.0749229, Final residual = 0.00662166, No Iterations 10

Time = 23

smoothSolver:  Solving for Ux, Initial residual = 0.0297833, Final residual = 0.00189844, No Iterations 3
smoothSolver:  Solving for Uy, Initial residual = 0.0289235, Final residual = 0.00276058, No Iterations 3
GAMG:  Solving for p, Initial residual = 0.0627464, Final residual = 0.00408517, No Iterations 2
time step continuity errors : sum local = 0.0130361, global = 0.00268773, cumulative = 0.0222369
smoothSolver:  Solving for omega, Initial residual = 0.00978312, Final residual = 0.000454854, No Iterations 3
smoothSolver:  Solving for k, Initial residual = 0.0628896, Final residual = 0.00303618, No Iterations 3
ExecutionTime = 0.25 s  ClockTime = 0 s

scalarTransport execute: age
smoothSolver:  Solving for age, Initial residual = 0.0715005, Final residual = 0.00623619, No Iterations 10

Time = 24

smoothSolver:  Solving for Ux, Initial residual = 0.0273198, Final residual = 0.00170056, No Iterations 3
smoothSolver:  Solving for Uy, Initial residual = 0.0276344, Final residual = 0.00258468, No Iterations 3
GAMG:  Solving for p, Initial residual = 0.063265, Final residual = 0.00396536, No Iterations 2
time step continuity errors : sum local = 0.0117818, global = 0.00234078, cumulative = 0.0245777
smoothSolver:  Solving for omega, Initial residual = 0.00923272, Final residual = 0.000900544, No Iterations 2
smoothSolver:  Solving for k, Initial residual = 0.0619769, Final residual = 0.0028802, No Iterations 3
ExecutionTime = 0.25 s  ClockTime = 0 s

scalarTransport execute: age
smoothSolver:  Solving for age, Initial residual = 0.0670592, Final residual = 0.00603359, No Iterations 10

Time = 25

smoothSolver:  Solving for Ux, Initial residual = 0.025158, Final residual = 0.00158455, No Iterations 3
smoothSolver:  Solving for Uy, Initial residual = 0.0259471, Final residual = 0.00233214, No Iterations 3
GAMG:  Solving for p, Initial residual = 0.0623735, Final residual = 0.00370322, No Iterations 2
time step continuity errors : sum local = 0.0104168, global = 0.00203477, cumulative = 0.0266124
smoothSolver:  Solving for omega, Initial residual = 0.00894866, Final residual = 0.00083274, No Iterations 2
smoothSolver:  Solving for k, Initial residual = 0.0613544, Final residual = 0.00276672, No Iterations 3
ExecutionTime = 0.27 s  ClockTime = 0 s

scalarTransport execute: age
smoothSolver:  Solving for age, Initial residual = 0.0631227, Final residual = 0.00592195, No Iterations 10

Time = 26

smoothSolver:  Solving for Ux, Initial residual = 0.0235954, Final residual = 0.00158605, No Iterations 3
smoothSolver:  Solving for Uy, Initial residual = 0.0238871, Final residual = 0.00205409, No Iterations 3
GAMG:  Solving for p, Initial residual = 0.060622, Final residual = 0.00350704, No Iterations 2
time step continuity errors : sum local = 0.00951018, global = 0.00167659, cumulative = 0.028289
smoothSolver:  Solving for omega, Initial residual = 0.00854614, Final residual = 0.000756583, No Iterations 2
smoothSolver:  Solving for k, Initial residual = 0.0597932, Final residual = 0.00267661, No Iterations 3
ExecutionTime = 0.28 s  ClockTime = 0 s

scalarTransport execute: age
smoothSolver:  Solving for age, Initial residual = 0.0607215, Final residual = 0.00576833, No Iterations 10

Time = 27

smoothSolver:  Solving for Ux, Initial residual = 0.0223642, Final residual = 0.0015822, No Iterations 3
smoothSolver:  Solving for Uy, Initial residual = 0.0217859, Final residual = 0.00178604, No Iterations 3
GAMG:  Solving for p, Initial residual = 0.0601325, Final residual = 0.00451282, No Iterations 2
time step continuity errors : sum local = 0.011981, global = 0.00134434, cumulative = 0.0296334
smoothSolver:  Solving for omega, Initial residual = 0.00819722, Final residual = 0.000683731, No Iterations 2
smoothSolver:  Solving for k, Initial residual = 0.0577267, Final residual = 0.0025512, No Iterations 3
ExecutionTime = 0.29 s  ClockTime = 0 s

scalarTransport execute: age
smoothSolver:  Solving for age, Initial residual = 0.0559159, Final residual = 0.00497537, No Iterations 11

Time = 28

smoothSolver:  Solving for Ux, Initial residual = 0.0213455, Final residual = 0.00157076, No Iterations 3
smoothSolver:  Solving for Uy, Initial residual = 0.0198336, Final residual = 0.00158042, No Iterations 3
GAMG:  Solving for p, Initial residual = 0.0604092, Final residual = 0.0048264, No Iterations 2
time step continuity errors : sum local = 0.0126009, global = 0.000949746, cumulative = 0.0305831
smoothSolver:  Solving for omega, Initial residual = 0.00768383, Final residual = 0.000617423, No Iterations 2
smoothSolver:  Solving for k, Initial residual = 0.0554484, Final residual = 0.00242366, No Iterations 3
ExecutionTime = 0.29 s  ClockTime = 0 s

scalarTransport execute: age
smoothSolver:  Solving for age, Initial residual = 0.0533506, Final residual = 0.00479564, No Iterations 11

Time = 29

smoothSolver:  Solving for Ux, Initial residual = 0.0200442, Final residual = 0.00146457, No Iterations 3
smoothSolver:  Solving for Uy, Initial residual = 0.0182634, Final residual = 0.00138041, No Iterations 3
GAMG:  Solving for p, Initial residual = 0.0572808, Final residual = 0.00480785, No Iterations 2
time step continuity errors : sum local = 0.0124123, global = 0.000384062, cumulative = 0.0309672
smoothSolver:  Solving for omega, Initial residual = 0.00721224, Final residual = 0.00058153, No Iterations 2
smoothSolver:  Solving for k, Initial residual = 0.0535294, Final residual = 0.00226291, No Iterations 3
ExecutionTime = 0.31 s  ClockTime = 0 s

scalarTransport execute: age
smoothSolver:  Solving for age, Initial residual = 0.051072, Final residual = 0.00451686, No Iterations 12

Time = 30

smoothSolver:  Solving for Ux, Initial residual = 0.0184474, Final residual = 0.00129275, No Iterations 3
smoothSolver:  Solving for Uy, Initial residual = 0.0172089, Final residual = 0.00128136, No Iterations 3
GAMG:  Solving for p, Initial residual = 0.054513, Final residual = 0.00432639, No Iterations 2
time step continuity errors : sum local = 0.01114, global = -0.000489907, cumulative = 0.0304773
smoothSolver:  Solving for omega, Initial residual = 0.00668638, Final residual = 0.000564818, No Iterations 2
smoothSolver:  Solving for k, Initial residual = 0.0514272, Final residual = 0.00218127, No Iterations 3
ExecutionTime = 0.32 s  ClockTime = 0 s

scalarTransport execute: age
smoothSolver:  Solving for age, Initial residual = 0.0564556, Final residual = 0.00520448, No Iterations 17

Time = 31

smoothSolver:  Solving for Ux, Initial residual = 0.0168815, Final residual = 0.00112566, No Iterations 3
smoothSolver:  Solving for Uy, Initial residual = 0.0165157, Final residual = 0.00126348, No Iterations 3
GAMG:  Solving for p, Initial residual = 0.0523341, Final residual = 0.00340543, No Iterations 2
time step continuity errors : sum local = 0.0086527, global = -0.000778668, cumulative = 0.0296986
smoothSolver:  Solving for omega, Initial residual = 0.0069079, Final residual = 0.000560284, No Iterations 2
smoothSolver:  Solving for k, Initial residual = 0.0500107, Final residual = 0.00220261, No Iterations 3
ExecutionTime = 0.33 s  ClockTime = 0 s

scalarTransport execute: age
smoothSolver:  Solving for age, Initial residual = 0.0482745, Final residual = 0.00369689, No Iterations 8

Time = 32

smoothSolver:  Solving for Ux, Initial residual = 0.0152736, Final residual = 0.000990065, No Iterations 3
smoothSolver:  Solving for Uy, Initial residual = 0.0156983, Final residual = 0.00130014, No Iterations 3
GAMG:  Solving for p, Initial residual = 0.0498145, Final residual = 0.00333105, No Iterations 2
time step continuity errors : sum local = 0.00860039, global = -0.000775348, cumulative = 0.0289233
smoothSolver:  Solving for omega, Initial residual = 0.006065, Final residual = 0.000553236, No Iterations 2
smoothSolver:  Solving for k, Initial residual = 0.045406, Final residual = 0.00225865, No Iterations 3
ExecutionTime = 0.34 s  ClockTime = 0 s

scalarTransport execute: age
smoothSolver:  Solving for age, Initial residual = 0.0809105, Final residual = 0.00661571, No Iterations 6

Time = 33

smoothSolver:  Solving for Ux, Initial residual = 0.0140378, Final residual = 0.000948374, No Iterations 3
smoothSolver:  Solving for Uy, Initial residual = 0.0146407, Final residual = 0.00132784, No Iterations 3
GAMG:  Solving for p, Initial residual = 0.0473348, Final residual = 0.00313332, No Iterations 2
time step continuity errors : sum local = 0.00830594, global = -0.000826854, cumulative = 0.0280964
smoothSolver:  Solving for omega, Initial residual = 0.00559405, Final residual = 0.000543198, No Iterations 2
smoothSolver:  Solving for k, Initial residual = 0.0410864, Final residual = 0.0023241, No Iterations 3
ExecutionTime = 0.35 s  ClockTime = 0 s

scalarTransport execute: age
smoothSolver:  Solving for age, Initial residual = 0.105436, Final residual = 0.00846094, No Iterations 6

Time = 34

smoothSolver:  Solving for Ux, Initial residual = 0.0132826, Final residual = 0.000925079, No Iterations 3
smoothSolver:  Solving for Uy, Initial residual = 0.0133418, Final residual = 0.00130949, No Iterations 3
GAMG:  Solving for p, Initial residual = 0.0440801, Final residual = 0.00262258, No Iterations 2
time step continuity errors : sum local = 0.00708141, global = -0.000866247, cumulative = 0.0272302
smoothSolver:  Solving for omega, Initial residual = 0.00553553, Final residual = 0.000532371, No Iterations 2
smoothSolver:  Solving for k, Initial residual = 0.0383251, Final residual = 0.00234035, No Iterations 3
ExecutionTime = 0.35 s  ClockTime = 0 s

scalarTransport execute: age
smoothSolver:  Solving for age, Initial residual = 0.106822, Final residual = 0.0100691, No Iterations 6

Time = 35

smoothSolver:  Solving for Ux, Initial residual = 0.0124603, Final residual = 0.000873218, No Iterations 3
smoothSolver:  Solving for Uy, Initial residual = 0.0121017, Final residual = 0.000688094, No Iterations 4
GAMG:  Solving for p, Initial residual = 0.0418409, Final residual = 0.00232166, No Iterations 2
time step continuity errors : sum local = 0.00638795, global = -0.000949587, cumulative = 0.0262806
smoothSolver:  Solving for omega, Initial residual = 0.00548847, Final residual = 0.000531426, No Iterations 2
smoothSolver:  Solving for k, Initial residual = 0.0357455, Final residual = 0.00230018, No Iterations 3
ExecutionTime = 0.37 s  ClockTime = 0 s

scalarTransport execute: age
smoothSolver:  Solving for age, Initial residual = 0.0962628, Final residual = 0.00824054, No Iterations 7

Time = 36

smoothSolver:  Solving for Ux, Initial residual = 0.0115505, Final residual = 0.00081101, No Iterations 3
smoothSolver:  Solving for Uy, Initial residual = 0.0111387, Final residual = 0.000634979, No Iterations 4
GAMG:  Solving for p, Initial residual = 0.0387044, Final residual = 0.00270294, No Iterations 2
time step continuity errors : sum local = 0.00758724, global = -0.00123721, cumulative = 0.0250434
smoothSolver:  Solving for omega, Initial residual = 0.00541327, Final residual = 0.000520487, No Iterations 2
smoothSolver:  Solving for k, Initial residual = 0.0343351, Final residual = 0.00222807, No Iterations 3
ExecutionTime = 0.37 s  ClockTime = 0 s

scalarTransport execute: age
smoothSolver:  Solving for age, Initial residual = 0.0838007, Final residual = 0.00722929, No Iterations 7

Time = 37

smoothSolver:  Solving for Ux, Initial residual = 0.0105988, Final residual = 0.00075128, No Iterations 3
smoothSolver:  Solving for Uy, Initial residual = 0.0102451, Final residual = 0.000574765, No Iterations 4
GAMG:  Solving for p, Initial residual = 0.0359466, Final residual = 0.00261072, No Iterations 2
time step continuity errors : sum local = 0.00741564, global = -0.00117711, cumulative = 0.0238662
smoothSolver:  Solving for omega, Initial residual = 0.00500365, Final residual = 0.000496538, No Iterations 2
smoothSolver:  Solving for k, Initial residual = 0.032959, Final residual = 0.00217417, No Iterations 3
ExecutionTime = 0.38 s  ClockTime = 0 s

scalarTransport execute: age
smoothSolver:  Solving for age, Initial residual = 0.0768821, Final residual = 0.00682328, No Iterations 6

Time = 38

smoothSolver:  Solving for Ux, Initial residual = 0.00981724, Final residual = 0.00067311, No Iterations 3
smoothSolver:  Solving for Uy, Initial residual = 0.00937538, Final residual = 0.000922257, No Iterations 3
GAMG:  Solving for p, Initial residual = 0.0317098, Final residual = 0.0022231, No Iterations 2
time step continuity errors : sum local = 0.0063209, global = -0.000965706, cumulative = 0.0229005
smoothSolver:  Solving for omega, Initial residual = 0.0045786, Final residual = 0.000201722, No Iterations 3
smoothSolver:  Solving for k, Initial residual = 0.0317667, Final residual = 0.00212079, No Iterations 3
ExecutionTime = 0.39 s  ClockTime = 0 s

scalarTransport execute: age
smoothSolver:  Solving for age, Initial residual = 0.0718997, Final residual = 0.0067599, No Iterations 5

Time = 39

smoothSolver:  Solving for Ux, Initial residual = 0.00906358, Final residual = 0.000612274, No Iterations 3
smoothSolver:  Solving for Uy, Initial residual = 0.00865527, Final residual = 0.000838661, No Iterations 3
GAMG:  Solving for p, Initial residual = 0.0281818, Final residual = 0.0018492, No Iterations 2
time step continuity errors : sum local = 0.00526497, global = -0.000736204, cumulative = 0.0221643
smoothSolver:  Solving for omega, Initial residual = 0.00400223, Final residual = 0.000180597, No Iterations 3
smoothSolver:  Solving for k, Initial residual = 0.030964, Final residual = 0.00206848, No Iterations 3
ExecutionTime = 0.4 s  ClockTime = 0 s

scalarTransport execute: age
smoothSolver:  Solving for age, Initial residual = 0.0586207, Final residual = 0.00498786, No Iterations 6

Time = 40

smoothSolver:  Solving for Ux, Initial residual = 0.00850823, Final residual = 0.000593951, No Iterations 3
smoothSolver:  Solving for Uy, Initial residual = 0.00795839, Final residual = 0.000756006, No Iterations 3
GAMG:  Solving for p, Initial residual = 0.0253888, Final residual = 0.0015435, No Iterations 2
time step continuity errors : sum local = 0.00440095, global = -0.00051089, cumulative = 0.0216534
smoothSolver:  Solving for omega, Initial residual = 0.00364075, Final residual = 0.000166186, No Iterations 3
smoothSolver:  Solving for k, Initial residual = 0.0304878, Final residual = 0.00202981, No Iterations 3
ExecutionTime = 0.41 s  ClockTime = 0 s

scalarTransport execute: age
smoothSolver:  Solving for age, Initial residual = 0.0508694, Final residual = 0.00479957, No Iterations 6

Time = 41

smoothSolver:  Solving for Ux, Initial residual = 0.00806434, Final residual = 0.000580441, No Iterations 3
smoothSolver:  Solving for Uy, Initial residual = 0.00728851, Final residual = 0.000678409, No Iterations 3
GAMG:  Solving for p, Initial residual = 0.0229676, Final residual = 0.00129563, No Iterations 2
time step continuity errors : sum local = 0.00369398, global = -0.000305735, cumulative = 0.0213477
smoothSolver:  Solving for omega, Initial residual = 0.00329729, Final residual = 0.000156192, No Iterations 3
smoothSolver:  Solving for k, Initial residual = 0.0301973, Final residual = 0.00199624, No Iterations 3
ExecutionTime = 0.42 s  ClockTime = 0 s

scalarTransport execute: age
smoothSolver:  Solving for age, Initial residual = 0.0418904, Final residual = 0.00409136, No Iterations 7

Time = 42

smoothSolver:  Solving for Ux, Initial residual = 0.00773503, Final residual = 0.000580449, No Iterations 3
smoothSolver:  Solving for Uy, Initial residual = 0.00669397, Final residual = 0.000611417, No Iterations 3
GAMG:  Solving for p, Initial residual = 0.0211944, Final residual = 0.00117632, No Iterations 2
time step continuity errors : sum local = 0.00335198, global = -0.000135976, cumulative = 0.0212117
smoothSolver:  Solving for omega, Initial residual = 0.00305689, Final residual = 0.000145964, No Iterations 3
smoothSolver:  Solving for k, Initial residual = 0.0298246, Final residual = 0.00196265, No Iterations 3
ExecutionTime = 0.43 s  ClockTime = 0 s

scalarTransport execute: age
smoothSolver:  Solving for age, Initial residual = 0.0354696, Final residual = 0.00337044, No Iterations 8

Time = 43

smoothSolver:  Solving for Ux, Initial residual = 0.007509, Final residual = 0.000589842, No Iterations 3
smoothSolver:  Solving for Uy, Initial residual = 0.00623417, Final residual = 0.000569743, No Iterations 3
GAMG:  Solving for p, Initial residual = 0.0199952, Final residual = 0.0011395, No Iterations 2
time step continuity errors : sum local = 0.00324706, global = 3.92359e-06, cumulative = 0.0212157
smoothSolver:  Solving for omega, Initial residual = 0.00281463, Final residual = 0.000134701, No Iterations 3
smoothSolver:  Solving for k, Initial residual = 0.0292578, Final residual = 0.00191319, No Iterations 3
ExecutionTime = 0.44 s  ClockTime = 0 s

scalarTransport execute: age
smoothSolver:  Solving for age, Initial residual = 0.0311003, Final residual = 0.00308354, No Iterations 8

Time = 44

smoothSolver:  Solving for Ux, Initial residual = 0.007432, Final residual = 0.000602231, No Iterations 3
smoothSolver:  Solving for Uy, Initial residual = 0.00595113, Final residual = 0.000547064, No Iterations 3
GAMG:  Solving for p, Initial residual = 0.0192714, Final residual = 0.00114054, No Iterations 2
time step continuity errors : sum local = 0.00324575, global = 3.29964e-06, cumulative = 0.021219
smoothSolver:  Solving for omega, Initial residual = 0.00274329, Final residual = 0.000271978, No Iterations 2
smoothSolver:  Solving for k, Initial residual = 0.0285196, Final residual = 0.0018389, No Iterations 3
ExecutionTime = 0.45 s  ClockTime = 0 s

scalarTransport execute: age
smoothSolver:  Solving for age, Initial residual = 0.0289041, Final residual = 0.00279807, No Iterations 8

Time = 45

smoothSolver:  Solving for Ux, Initial residual = 0.0073548, Final residual = 0.000607219, No Iterations 3
smoothSolver:  Solving for Uy, Initial residual = 0.00580401, Final residual = 0.000542278, No Iterations 3
GAMG:  Solving for p, Initial residual = 0.01884, Final residual = 0.00117185, No Iterations 2
time step continuity errors : sum local = 0.00332372, global = 1.39562e-05, cumulative = 0.0212329
smoothSolver:  Solving for omega, Initial residual = 0.00259007, Final residual = 0.000258325, No Iterations 2
smoothSolver:  Solving for k, Initial residual = 0.0273871, Final residual = 0.00174809, No Iterations 3
ExecutionTime = 0.46 s  ClockTime = 0 s

scalarTransport execute: age
smoothSolver:  Solving for age, Initial residual = 0.0272651, Final residual = 0.00259811, No Iterations 8

Time = 46

smoothSolver:  Solving for Ux, Initial residual = 0.00726903, Final residual = 0.000614271, No Iterations 3
smoothSolver:  Solving for Uy, Initial residual = 0.00579754, Final residual = 0.000561281, No Iterations 3
GAMG:  Solving for p, Initial residual = 0.0187457, Final residual = 0.00126841, No Iterations 2
time step continuity errors : sum local = 0.00358468, global = 4.63556e-05, cumulative = 0.0212793
smoothSolver:  Solving for omega, Initial residual = 0.00253264, Final residual = 0.000240599, No Iterations 2
smoothSolver:  Solving for k, Initial residual = 0.0262719, Final residual = 0.001655, No Iterations 3
ExecutionTime = 0.47 s  ClockTime = 0 s

scalarTransport execute: age
smoothSolver:  Solving for age, Initial residual = 0.0269201, Final residual = 0.00249499, No Iterations 8

Time = 47

smoothSolver:  Solving for Ux, Initial residual = 0.00717227, Final residual = 0.000622829, No Iterations 3
smoothSolver:  Solving for Uy, Initial residual = 0.00590369, Final residual = 0.000589268, No Iterations 3
GAMG:  Solving for p, Initial residual = 0.0186615, Final residual = 0.00133818, No Iterations 2
time step continuity errors : sum local = 0.00377396, global = 1.44105e-05, cumulative = 0.0212937
smoothSolver:  Solving for omega, Initial residual = 0.00251174, Final residual = 0.000224836, No Iterations 2
smoothSolver:  Solving for k, Initial residual = 0.0252749, Final residual = 0.00156662, No Iterations 3
ExecutionTime = 0.48 s  ClockTime = 0 s

scalarTransport execute: age
smoothSolver:  Solving for age, Initial residual = 0.0254715, Final residual = 0.00246581, No Iterations 8

Time = 48

smoothSolver:  Solving for Ux, Initial residual = 0.00704869, Final residual = 0.000621654, No Iterations 3
smoothSolver:  Solving for Uy, Initial residual = 0.00600943, Final residual = 0.000336875, No Iterations 4
GAMG:  Solving for p, Initial residual = 0.0185611, Final residual = 0.0013634, No Iterations 2
time step continuity errors : sum local = 0.00384685, global = -5.54209e-05, cumulative = 0.0212383
smoothSolver:  Solving for omega, Initial residual = 0.00247283, Final residual = 0.000212683, No Iterations 2
smoothSolver:  Solving for k, Initial residual = 0.0241642, Final residual = 0.0014908, No Iterations 3
ExecutionTime = 0.49 s  ClockTime = 0 s

scalarTransport execute: age
smoothSolver:  Solving for age, Initial residual = 0.0250787, Final residual = 0.00247772, No Iterations 8

Time = 49

smoothSolver:  Solving for Ux, Initial residual = 0.00692101, Final residual = 0.000614824, No Iterations 3
smoothSolver:  Solving for Uy, Initial residual = 0.00597461, Final residual = 0.000338712, No Iterations 4
GAMG:  Solving for p, Initial residual = 0.0181126, Final residual = 0.00135937, No Iterations 2
time step continuity errors : sum local = 0.00383726, global = -0.000149771, cumulative = 0.0210885
smoothSolver:  Solving for omega, Initial residual = 0.002405, Final residual = 0.000202233, No Iterations 2
smoothSolver:  Solving for k, Initial residual = 0.0231337, Final residual = 0.00143243, No Iterations 3
ExecutionTime = 0.5 s  ClockTime = 0 s

scalarTransport execute: age
smoothSolver:  Solving for age, Initial residual = 0.0237251, Final residual = 0.00217683, No Iterations 9

Time = 50

smoothSolver:  Solving for Ux, Initial residual = 0.00672515, Final residual = 0.000595051, No Iterations 3
smoothSolver:  Solving for Uy, Initial residual = 0.00588773, Final residual = 0.000334623, No Iterations 4
GAMG:  Solving for p, Initial residual = 0.0175962, Final residual = 0.00131568, No Iterations 2
time step continuity errors : sum local = 0.00372061, global = -0.000259232, cumulative = 0.0208293
smoothSolver:  Solving for omega, Initial residual = 0.0023374, Final residual = 0.000193082, No Iterations 2
smoothSolver:  Solving for k, Initial residual = 0.0220313, Final residual = 0.00138768, No Iterations 3
ExecutionTime = 0.51 s  ClockTime = 0 s

scalarTransport execute: age
smoothSolver:  Solving for age, Initial residual = 0.0224446, Final residual = 0.00214793, No Iterations 9

Time = 51

smoothSolver:  Solving for Ux, Initial residual = 0.00646277, Final residual = 0.000565837, No Iterations 3
smoothSolver:  Solving for Uy, Initial residual = 0.00573072, Final residual = 0.000324484, No Iterations 4
GAMG:  Solving for p, Initial residual = 0.0169063, Final residual = 0.00124232, No Iterations 2
time step continuity errors : sum local = 0.00351896, global = -0.000369817, cumulative = 0.0204594
smoothSolver:  Solving for omega, Initial residual = 0.00225836, Final residual = 0.000187802, No Iterations 2
smoothSolver:  Solving for k, Initial residual = 0.0209531, Final residual = 0.00135084, No Iterations 3
ExecutionTime = 0.52 s  ClockTime = 0 s

scalarTransport execute: age
smoothSolver:  Solving for age, Initial residual = 0.0209878, Final residual = 0.00208964, No Iterations 9

Time = 52

smoothSolver:  Solving for Ux, Initial residual = 0.00616314, Final residual = 0.000532343, No Iterations 3
smoothSolver:  Solving for Uy, Initial residual = 0.0054991, Final residual = 0.000308438, No Iterations 4
GAMG:  Solving for p, Initial residual = 0.0161255, Final residual = 0.0011341, No Iterations 2
time step continuity errors : sum local = 0.00321851, global = -0.0004635, cumulative = 0.0199959
smoothSolver:  Solving for omega, Initial residual = 0.00216234, Final residual = 0.000186337, No Iterations 2
smoothSolver:  Solving for k, Initial residual = 0.0199753, Final residual = 0.00132073, No Iterations 3
ExecutionTime = 0.53 s  ClockTime = 0 s

scalarTransport execute: age
smoothSolver:  Solving for age, Initial residual = 0.0196366, Final residual = 0.00177126, No Iterations 10

Time = 53

smoothSolver:  Solving for Ux, Initial residual = 0.0058585, Final residual = 0.000501026, No Iterations 3
smoothSolver:  Solving for Uy, Initial residual = 0.00523115, Final residual = 0.000287589, No Iterations 4
GAMG:  Solving for p, Initial residual = 0.0153085, Final residual = 0.00100545, No Iterations 2
time step continuity errors : sum local = 0.00285571, global = -0.000520613, cumulative = 0.0194753
smoothSolver:  Solving for omega, Initial residual = 0.00209222, Final residual = 0.000187953, No Iterations 2
smoothSolver:  Solving for k, Initial residual = 0.0191549, Final residual = 0.00129715, No Iterations 3
ExecutionTime = 0.54 s  ClockTime = 0 s

scalarTransport execute: age
smoothSolver:  Solving for age, Initial residual = 0.0185819, Final residual = 0.00174749, No Iterations 10

Time = 54

smoothSolver:  Solving for Ux, Initial residual = 0.00561716, Final residual = 0.000482116, No Iterations 3
smoothSolver:  Solving for Uy, Initial residual = 0.00494706, Final residual = 0.000488216, No Iterations 3
GAMG:  Solving for p, Initial residual = 0.0142641, Final residual = 0.000895404, No Iterations 2
time step continuity errors : sum local = 0.00254984, global = -0.000538538, cumulative = 0.0189368
smoothSolver:  Solving for omega, Initial residual = 0.00201969, Final residual = 0.000190558, No Iterations 2
smoothSolver:  Solving for k, Initial residual = 0.0185679, Final residual = 0.00128841, No Iterations 3
ExecutionTime = 0.55 s  ClockTime = 0 s

scalarTransport execute: age
smoothSolver:  Solving for age, Initial residual = 0.0177108, Final residual = 0.00172373, No Iterations 10

Time = 55

smoothSolver:  Solving for Ux, Initial residual = 0.00540531, Final residual = 0.000474395, No Iterations 3
smoothSolver:  Solving for Uy, Initial residual = 0.00473883, Final residual = 0.000466913, No Iterations 3
GAMG:  Solving for p, Initial residual = 0.0134519, Final residual = 0.000883525, No Iterations 2
time step continuity errors : sum local = 0.00252631, global = -0.000430908, cumulative = 0.0185059
smoothSolver:  Solving for omega, Initial residual = 0.00199856, Final residual = 0.000193693, No Iterations 2
smoothSolver:  Solving for k, Initial residual = 0.0179215, Final residual = 0.00129943, No Iterations 3
ExecutionTime = 0.55 s  ClockTime = 0 s

scalarTransport execute: age
smoothSolver:  Solving for age, Initial residual = 0.0170982, Final residual = 0.00152916, No Iterations 11

Time = 56

smoothSolver:  Solving for Ux, Initial residual = 0.00530377, Final residual = 0.000491708, No Iterations 3
smoothSolver:  Solving for Uy, Initial residual = 0.00463269, Final residual = 0.000457535, No Iterations 3
GAMG:  Solving for p, Initial residual = 0.0125718, Final residual = 0.000718588, No Iterations 2
time step continuity errors : sum local = 0.00207069, global = -0.000460625, cumulative = 0.0180453
smoothSolver:  Solving for omega, Initial residual = 0.00218616, Final residual = 0.000202815, No Iterations 2
smoothSolver:  Solving for k, Initial residual = 0.0181586, Final residual = 0.00131147, No Iterations 3
ExecutionTime = 0.56 s  ClockTime = 0 s

scalarTransport execute: age
smoothSolver:  Solving for age, Initial residual = 0.0166335, Final residual = 0.00152041, No Iterations 11

Time = 57

smoothSolver:  Solving for Ux, Initial residual = 0.00516995, Final residual = 0.000494795, No Iterations 3
smoothSolver:  Solving for Uy, Initial residual = 0.0044185, Final residual = 0.000426069, No Iterations 3
GAMG:  Solving for p, Initial residual = 0.0121169, Final residual = 0.000792955, No Iterations 2
time step continuity errors : sum local = 0.00229622, global = -0.000436476, cumulative = 0.0176088
smoothSolver:  Solving for omega, Initial residual = 0.00219992, Final residual = 0.000204643, No Iterations 2
smoothSolver:  Solving for k, Initial residual = 0.0181394, Final residual = 0.00134394, No Iterations 3
ExecutionTime = 0.57 s  ClockTime = 0 s

scalarTransport execute: age
smoothSolver:  Solving for age, Initial residual = 0.0163054, Final residual = 0.0015678, No Iterations 11

Time = 58

smoothSolver:  Solving for Ux, Initial residual = 0.00510508, Final residual = 0.000488043, No Iterations 3
smoothSolver:  Solving for Uy, Initial residual = 0.00427949, Final residual = 0.000411484, No Iterations 3
GAMG:  Solving for p, Initial residual = 0.011633, Final residual = 0.000752808, No Iterations 2
time step continuity errors : sum local = 0.00219109, global = -0.000463973, cumulative = 0.0171448
smoothSolver:  Solving for omega, Initial residual = 0.00225068, Final residual = 0.000207133, No Iterations 2
smoothSolver:  Solving for k, Initial residual = 0.0184749, Final residual = 0.00137735, No Iterations 3
ExecutionTime = 0.58 s  ClockTime = 0 s

scalarTransport execute: age
smoothSolver:  Solving for age, Initial residual = 0.0163798, Final residual = 0.00158713, No Iterations 11

Time = 59

smoothSolver:  Solving for Ux, Initial residual = 0.00506835, Final residual = 0.000486748, No Iterations 3
smoothSolver:  Solving for Uy, Initial residual = 0.00423152, Final residual = 0.000398686, No Iterations 3
GAMG:  Solving for p, Initial residual = 0.011418, Final residual = 0.000787626, No Iterations 2
time step continuity errors : sum local = 0.00230056, global = -0.000429131, cumulative = 0.0167157
smoothSolver:  Solving for omega, Initial residual = 0.00223725, Final residual = 0.0002081, No Iterations 2
smoothSolver:  Solving for k, Initial residual = 0.018591, Final residual = 0.00141827, No Iterations 3
ExecutionTime = 0.59 s  ClockTime = 0 s

scalarTransport execute: age
smoothSolver:  Solving for age, Initial residual = 0.0164308, Final residual = 0.00163022, No Iterations 11

Time = 60

smoothSolver:  Solving for Ux, Initial residual = 0.00503665, Final residual = 0.000476751, No Iterations 3
smoothSolver:  Solving for Uy, Initial residual = 0.00430991, Final residual = 0.0004174, No Iterations 3
GAMG:  Solving for p, Initial residual = 0.0111436, Final residual = 0.000737568, No Iterations 2
time step continuity errors : sum local = 0.00216533, global = -0.000459239, cumulative = 0.0162564
smoothSolver:  Solving for omega, Initial residual = 0.00223804, Final residual = 0.00020808, No Iterations 2
smoothSolver:  Solving for k, Initial residual = 0.0188889, Final residual = 0.0014502, No Iterations 3
ExecutionTime = 0.6 s  ClockTime = 0 s

scalarTransport execute: age
smoothSolver:  Solving for age, Initial residual = 0.0164499, Final residual = 0.00164081, No Iterations 11

Time = 61

smoothSolver:  Solving for Ux, Initial residual = 0.00496536, Final residual = 0.000473199, No Iterations 3
smoothSolver:  Solving for Uy, Initial residual = 0.00436232, Final residual = 0.000425556, No Iterations 3
GAMG:  Solving for p, Initial residual = 0.011151, Final residual = 0.00076839, No Iterations 2
time step continuity errors : sum local = 0.00226489, global = -0.000421485, cumulative = 0.015835
smoothSolver:  Solving for omega, Initial residual = 0.00224472, Final residual = 0.000208825, No Iterations 2
smoothSolver:  Solving for k, Initial residual = 0.0187836, Final residual = 0.00147804, No Iterations 3
ExecutionTime = 0.62 s  ClockTime = 0 s

scalarTransport execute: age
smoothSolver:  Solving for age, Initial residual = 0.016341, Final residual = 0.00142525, No Iterations 12

Time = 62

smoothSolver:  Solving for Ux, Initial residual = 0.00487583, Final residual = 0.000452945, No Iterations 3
smoothSolver:  Solving for Uy, Initial residual = 0.00446415, Final residual = 0.000254145, No Iterations 4
GAMG:  Solving for p, Initial residual = 0.010876, Final residual = 0.000728131, No Iterations 2
time step continuity errors : sum local = 0.00216007, global = -0.000460205, cumulative = 0.0153747
smoothSolver:  Solving for omega, Initial residual = 0.00222237, Final residual = 0.000209631, No Iterations 2
smoothSolver:  Solving for k, Initial residual = 0.0189471, Final residual = 0.00149522, No Iterations 3
ExecutionTime = 0.63 s  ClockTime = 0 s

scalarTransport execute: age
smoothSolver:  Solving for age, Initial residual = 0.0161521, Final residual = 0.00159995, No Iterations 11

Time = 63

smoothSolver:  Solving for Ux, Initial residual = 0.00483273, Final residual = 0.000445902, No Iterations 3
smoothSolver:  Solving for Uy, Initial residual = 0.00445341, Final residual = 0.000249679, No Iterations 4
GAMG:  Solving for p, Initial residual = 0.0109758, Final residual = 0.000740304, No Iterations 2
time step continuity errors : sum local = 0.00220643, global = -0.000484705, cumulative = 0.01489
smoothSolver:  Solving for omega, Initial residual = 0.00228775, Final residual = 0.000211598, No Iterations 2
smoothSolver:  Solving for k, Initial residual = 0.0189308, Final residual = 0.00150631, No Iterations 3
ExecutionTime = 0.64 s  ClockTime = 0 s

scalarTransport execute: age
smoothSolver:  Solving for age, Initial residual = 0.0159831, Final residual = 0.00155566, No Iterations 11

Time = 64

smoothSolver:  Solving for Ux, Initial residual = 0.00473898, Final residual = 0.000415283, No Iterations 3
smoothSolver:  Solving for Uy, Initial residual = 0.00443424, Final residual = 0.000251657, No Iterations 4
GAMG:  Solving for p, Initial residual = 0.0108477, Final residual = 0.000816405, No Iterations 2
time step continuity errors : sum local = 0.00244697, global = -0.000398478, cumulative = 0.0144916
smoothSolver:  Solving for omega, Initial residual = 0.00219785, Final residual = 0.000210968, No Iterations 2
smoothSolver:  Solving for k, Initial residual = 0.0183332, Final residual = 0.00150246, No Iterations 3
ExecutionTime = 0.65 s  ClockTime = 0 s

scalarTransport execute: age
smoothSolver:  Solving for age, Initial residual = 0.0154743, Final residual = 0.00149289, No Iterations 11

Time = 65

smoothSolver:  Solving for Ux, Initial residual = 0.00465431, Final residual = 0.000397693, No Iterations 3
smoothSolver:  Solving for Uy, Initial residual = 0.00445917, Final residual = 0.000258617, No Iterations 4
GAMG:  Solving for p, Initial residual = 0.0102142, Final residual = 0.000665275, No Iterations 2
time step continuity errors : sum local = 0.00200804, global = -0.00043511, cumulative = 0.0140565
smoothSolver:  Solving for omega, Initial residual = 0.00226259, Final residual = 0.000213084, No Iterations 2
smoothSolver:  Solving for k, Initial residual = 0.018371, Final residual = 0.00147511, No Iterations 3
ExecutionTime = 0.66 s  ClockTime = 0 s

scalarTransport execute: age
smoothSolver:  Solving for age, Initial residual = 0.0149825, Final residual = 0.00140978, No Iterations 11

Time = 66

smoothSolver:  Solving for Ux, Initial residual = 0.00461374, Final residual = 0.000397942, No Iterations 3
smoothSolver:  Solving for Uy, Initial residual = 0.00433414, Final residual = 0.000244576, No Iterations 4
GAMG:  Solving for p, Initial residual = 0.0101893, Final residual = 0.000682493, No Iterations 2
time step continuity errors : sum local = 0.00207695, global = -0.000462779, cumulative = 0.0135937
smoothSolver:  Solving for omega, Initial residual = 0.00233311, Final residual = 0.000214865, No Iterations 2
smoothSolver:  Solving for k, Initial residual = 0.0182327, Final residual = 0.00145313, No Iterations 3
ExecutionTime = 0.67 s  ClockTime = 0 s

scalarTransport execute: age
smoothSolver:  Solving for age, Initial residual = 0.0144986, Final residual = 0.001322, No Iterations 11

Time = 67

smoothSolver:  Solving for Ux, Initial residual = 0.00450733, Final residual = 0.0003683, No Iterations 3
smoothSolver:  Solving for Uy, Initial residual = 0.00415064, Final residual = 0.000231649, No Iterations 4
GAMG:  Solving for p, Initial residual = 0.0098429, Final residual = 0.000659045, No Iterations 2
time step continuity errors : sum local = 0.00202062, global = -0.000473561, cumulative = 0.0131201
smoothSolver:  Solving for omega, Initial residual = 0.00215437, Final residual = 0.000212075, No Iterations 2
smoothSolver:  Solving for k, Initial residual = 0.0178618, Final residual = 0.00142078, No Iterations 3
ExecutionTime = 0.68 s  ClockTime = 0 s

scalarTransport execute: age
smoothSolver:  Solving for age, Initial residual = 0.0139053, Final residual = 0.00124322, No Iterations 11

Time = 68

smoothSolver:  Solving for Ux, Initial residual = 0.00442134, Final residual = 0.000351845, No Iterations 3
smoothSolver:  Solving for Uy, Initial residual = 0.00400372, Final residual = 0.000391992, No Iterations 3
GAMG:  Solving for p, Initial residual = 0.00936289, Final residual = 0.000792795, No Iterations 2
time step continuity errors : sum local = 0.00244308, global = -0.000318335, cumulative = 0.0128018
smoothSolver:  Solving for omega, Initial residual = 0.00212523, Final residual = 0.00020394, No Iterations 2
smoothSolver:  Solving for k, Initial residual = 0.0171991, Final residual = 0.00137918, No Iterations 3
ExecutionTime = 0.69 s  ClockTime = 0 s

scalarTransport execute: age
smoothSolver:  Solving for age, Initial residual = 0.0133352, Final residual = 0.00117605, No Iterations 11

Time = 69

smoothSolver:  Solving for Ux, Initial residual = 0.00436744, Final residual = 0.000352835, No Iterations 3
smoothSolver:  Solving for Uy, Initial residual = 0.00394235, Final residual = 0.000385717, No Iterations 3
GAMG:  Solving for p, Initial residual = 0.00870889, Final residual = 0.000558967, No Iterations 2
time step continuity errors : sum local = 0.00172829, global = -0.000345876, cumulative = 0.0124559
smoothSolver:  Solving for omega, Initial residual = 0.00213951, Final residual = 0.000203543, No Iterations 2
smoothSolver:  Solving for k, Initial residual = 0.0174071, Final residual = 0.00131439, No Iterations 3
ExecutionTime = 0.7 s  ClockTime = 0 s

scalarTransport execute: age
smoothSolver:  Solving for age, Initial residual = 0.0129027, Final residual = 0.00111627, No Iterations 11

Time = 70

smoothSolver:  Solving for Ux, Initial residual = 0.00428983, Final residual = 0.00035365, No Iterations 3
smoothSolver:  Solving for Uy, Initial residual = 0.00381415, Final residual = 0.000364724, No Iterations 3
GAMG:  Solving for p, Initial residual = 0.00862844, Final residual = 0.000590094, No Iterations 2
time step continuity errors : sum local = 0.00184685, global = -0.000359508, cumulative = 0.0120964
smoothSolver:  Solving for omega, Initial residual = 0.00217831, Final residual = 0.000201117, No Iterations 2
smoothSolver:  Solving for k, Initial residual = 0.0172182, Final residual = 0.00126026, No Iterations 3
ExecutionTime = 0.71 s  ClockTime = 0 s

scalarTransport execute: age
smoothSolver:  Solving for age, Initial residual = 0.0125937, Final residual = 0.00124196, No Iterations 10

Time = 71

smoothSolver:  Solving for Ux, Initial residual = 0.00422518, Final residual = 0.000337996, No Iterations 3
smoothSolver:  Solving for Uy, Initial residual = 0.00358957, Final residual = 0.000334237, No Iterations 3
GAMG:  Solving for p, Initial residual = 0.00842271, Final residual = 0.00058107, No Iterations 2
time step continuity errors : sum local = 0.00183252, global = -0.000364248, cumulative = 0.0117322
smoothSolver:  Solving for omega, Initial residual = 0.00203112, Final residual = 0.000192946, No Iterations 2
smoothSolver:  Solving for k, Initial residual = 0.0168226, Final residual = 0.00119383, No Iterations 3
ExecutionTime = 0.72 s  ClockTime = 0 s

scalarTransport execute: age
smoothSolver:  Solving for age, Initial residual = 0.0124386, Final residual = 0.00121619, No Iterations 10

Time = 72

smoothSolver:  Solving for Ux, Initial residual = 0.00414225, Final residual = 0.000330331, No Iterations 3
smoothSolver:  Solving for Uy, Initial residual = 0.00345931, Final residual = 0.000310606, No Iterations 3
GAMG:  Solving for p, Initial residual = 0.00809517, Final residual = 0.000608263, No Iterations 2
time step continuity errors : sum local = 0.00192958, global = -0.00028374, cumulative = 0.0114484
smoothSolver:  Solving for omega, Initial residual = 0.00195039, Final residual = 0.000181853, No Iterations 2
smoothSolver:  Solving for k, Initial residual = 0.0163001, Final residual = 0.00112285, No Iterations 3
ExecutionTime = 0.73 s  ClockTime = 0 s

scalarTransport execute: age
smoothSolver:  Solving for age, Initial residual = 0.0121246, Final residual = 0.00120065, No Iterations 10

Time = 73

smoothSolver:  Solving for Ux, Initial residual = 0.00410422, Final residual = 0.000331723, No Iterations 3
smoothSolver:  Solving for Uy, Initial residual = 0.00337887, Final residual = 0.000293845, No Iterations 3
GAMG:  Solving for p, Initial residual = 0.00774121, Final residual = 0.000521182, No Iterations 2
time step continuity errors : sum local = 0.00165865, global = -0.00031725, cumulative = 0.0111312
smoothSolver:  Solving for omega, Initial residual = 0.00193469, Final residual = 0.000174671, No Iterations 2
smoothSolver:  Solving for k, Initial residual = 0.0162596, Final residual = 0.00104632, No Iterations 3
ExecutionTime = 0.74 s  ClockTime = 0 s

scalarTransport execute: age
smoothSolver:  Solving for age, Initial residual = 0.0119793, Final residual = 0.00117745, No Iterations 10

Time = 74

smoothSolver:  Solving for Ux, Initial residual = 0.00409371, Final residual = 0.000336008, No Iterations 3
smoothSolver:  Solving for Uy, Initial residual = 0.00330749, Final residual = 0.000286645, No Iterations 3
GAMG:  Solving for p, Initial residual = 0.00768675, Final residual = 0.000544032, No Iterations 2
time step continuity errors : sum local = 0.00175109, global = -0.000333233, cumulative = 0.0107979
smoothSolver:  Solving for omega, Initial residual = 0.00196738, Final residual = 0.000166849, No Iterations 2
smoothSolver:  Solving for k, Initial residual = 0.0158982, Final residual = 0.000973822, No Iterations 3
ExecutionTime = 0.75 s  ClockTime = 1 s

scalarTransport execute: age
smoothSolver:  Solving for age, Initial residual = 0.0118159, Final residual = 0.00116553, No Iterations 10

Time = 75

smoothSolver:  Solving for Ux, Initial residual = 0.00405815, Final residual = 0.000330352, No Iterations 3
smoothSolver:  Solving for Uy, Initial residual = 0.00323071, Final residual = 0.000282166, No Iterations 3
GAMG:  Solving for p, Initial residual = 0.00768169, Final residual = 0.000585254, No Iterations 2
time step continuity errors : sum local = 0.00189417, global = -0.000277891, cumulative = 0.01052
smoothSolver:  Solving for omega, Initial residual = 0.00188939, Final residual = 0.000156157, No Iterations 2
smoothSolver:  Solving for k, Initial residual = 0.0151691, Final residual = 0.000908327, No Iterations 3
ExecutionTime = 0.76 s  ClockTime = 1 s

scalarTransport execute: age
smoothSolver:  Solving for age, Initial residual = 0.0116187, Final residual = 0.00100977, No Iterations 11

Time = 76

smoothSolver:  Solving for Ux, Initial residual = 0.00405767, Final residual = 0.000330732, No Iterations 3
smoothSolver:  Solving for Uy, Initial residual = 0.00324189, Final residual = 0.000285385, No Iterations 3
GAMG:  Solving for p, Initial residual = 0.00743679, Final residual = 0.000536298, No Iterations 2
time step continuity errors : sum local = 0.00174013, global = -0.000273006, cumulative = 0.010247
smoothSolver:  Solving for omega, Initial residual = 0.0017862, Final residual = 0.000147304, No Iterations 2
smoothSolver:  Solving for k, Initial residual = 0.0148954, Final residual = 0.000850191, No Iterations 3
ExecutionTime = 0.77 s  ClockTime = 1 s

scalarTransport execute: age
smoothSolver:  Solving for age, Initial residual = 0.0114069, Final residual = 0.00100081, No Iterations 11

Time = 77

smoothSolver:  Solving for Ux, Initial residual = 0.00406029, Final residual = 0.000335577, No Iterations 3
smoothSolver:  Solving for Uy, Initial residual = 0.00327497, Final residual = 0.000289501, No Iterations 3
GAMG:  Solving for p, Initial residual = 0.00733468, Final residual = 0.000515078, No Iterations 2
time step continuity errors : sum local = 0.00168836, global = -0.00030768, cumulative = 0.00993935
smoothSolver:  Solving for omega, Initial residual = 0.00184228, Final residual = 0.000141478, No Iterations 2
smoothSolver:  Solving for k, Initial residual = 0.0146497, Final residual = 0.00079741, No Iterations 3
ExecutionTime = 0.78 s  ClockTime = 1 s

scalarTransport execute: age
smoothSolver:  Solving for age, Initial residual = 0.0112481, Final residual = 0.000994685, No Iterations 11

Time = 78

smoothSolver:  Solving for Ux, Initial residual = 0.00401575, Final residual = 0.000331399, No Iterations 3
smoothSolver:  Solving for Uy, Initial residual = 0.00320521, Final residual = 0.000290552, No Iterations 3
GAMG:  Solving for p, Initial residual = 0.00742517, Final residual = 0.000557502, No Iterations 2
time step continuity errors : sum local = 0.00184592, global = -0.00027812, cumulative = 0.00966123
smoothSolver:  Solving for omega, Initial residual = 0.00187635, Final residual = 0.000135105, No Iterations 2
smoothSolver:  Solving for k, Initial residual = 0.0140898, Final residual = 0.000749577, No Iterations 3
ExecutionTime = 0.79 s  ClockTime = 1 s

scalarTransport execute: age
smoothSolver:  Solving for age, Initial residual = 0.0111542, Final residual = 0.00100976, No Iterations 11

Time = 79

smoothSolver:  Solving for Ux, Initial residual = 0.00397871, Final residual = 0.000321145, No Iterations 3
smoothSolver:  Solving for Uy, Initial residual = 0.00321156, Final residual = 0.000293845, No Iterations 3
GAMG:  Solving for p, Initial residual = 0.00727475, Final residual = 0.000548796, No Iterations 2
time step continuity errors : sum local = 0.00182185, global = -0.000278909, cumulative = 0.00938232
smoothSolver:  Solving for omega, Initial residual = 0.00176726, Final residual = 0.000130331, No Iterations 2
smoothSolver:  Solving for k, Initial residual = 0.0137412, Final residual = 0.000712876, No Iterations 3
ExecutionTime = 0.8 s  ClockTime = 1 s

scalarTransport execute: age
smoothSolver:  Solving for age, Initial residual = 0.0109827, Final residual = 0.00102349, No Iterations 11

Time = 80

smoothSolver:  Solving for Ux, Initial residual = 0.00396822, Final residual = 0.000322805, No Iterations 3
smoothSolver:  Solving for Uy, Initial residual = 0.00324285, Final residual = 0.000295547, No Iterations 3
GAMG:  Solving for p, Initial residual = 0.00708479, Final residual = 0.000518436, No Iterations 2
time step continuity errors : sum local = 0.00173752, global = -0.000270354, cumulative = 0.00911197
smoothSolver:  Solving for omega, Initial residual = 0.0018089, Final residual = 0.00012798, No Iterations 2
smoothSolver:  Solving for k, Initial residual = 0.013517, Final residual = 0.000688894, No Iterations 3
ExecutionTime = 0.81 s  ClockTime = 1 s

scalarTransport execute: age
smoothSolver:  Solving for age, Initial residual = 0.0108923, Final residual = 0.00103782, No Iterations 11

Time = 81

smoothSolver:  Solving for Ux, Initial residual = 0.00394583, Final residual = 0.000320108, No Iterations 3
smoothSolver:  Solving for Uy, Initial residual = 0.00321695, Final residual = 0.000294484, No Iterations 3
GAMG:  Solving for p, Initial residual = 0.00697948, Final residual = 0.000516875, No Iterations 2
time step continuity errors : sum local = 0.0017468, global = -0.000275525, cumulative = 0.00883644
smoothSolver:  Solving for omega, Initial residual = 0.00182154, Final residual = 0.000127843, No Iterations 2
smoothSolver:  Solving for k, Initial residual = 0.0133343, Final residual = 0.000676535, No Iterations 3
ExecutionTime = 0.82 s  ClockTime = 1 s

scalarTransport execute: age
smoothSolver:  Solving for age, Initial residual = 0.0108153, Final residual = 0.00105189, No Iterations 11

Time = 82

smoothSolver:  Solving for Ux, Initial residual = 0.0039378, Final residual = 0.000319561, No Iterations 3
smoothSolver:  Solving for Uy, Initial residual = 0.00319136, Final residual = 0.000290851, No Iterations 3
GAMG:  Solving for p, Initial residual = 0.0068847, Final residual = 0.000514354, No Iterations 2
time step continuity errors : sum local = 0.00175654, global = -0.000276556, cumulative = 0.00855989
smoothSolver:  Solving for omega, Initial residual = 0.0018435, Final residual = 0.000128995, No Iterations 2
smoothSolver:  Solving for k, Initial residual = 0.0132001, Final residual = 0.000673424, No Iterations 3
ExecutionTime = 0.83 s  ClockTime = 1 s

scalarTransport execute: age
smoothSolver:  Solving for age, Initial residual = 0.0107837, Final residual = 0.00106534, No Iterations 11

Time = 83

smoothSolver:  Solving for Ux, Initial residual = 0.00391986, Final residual = 0.00032188, No Iterations 3
smoothSolver:  Solving for Uy, Initial residual = 0.00317269, Final residual = 0.000286408, No Iterations 3
GAMG:  Solving for p, Initial residual = 0.00678253, Final residual = 0.000512023, No Iterations 2
time step continuity errors : sum local = 0.00176387, global = -0.000281075, cumulative = 0.00827881
smoothSolver:  Solving for omega, Initial residual = 0.00185853, Final residual = 0.00013099, No Iterations 2
smoothSolver:  Solving for k, Initial residual = 0.0131655, Final residual = 0.000677069, No Iterations 3
ExecutionTime = 0.84 s  ClockTime = 1 s

scalarTransport execute: age
smoothSolver:  Solving for age, Initial residual = 0.0107397, Final residual = 0.000936127, No Iterations 12

Time = 84

smoothSolver:  Solving for Ux, Initial residual = 0.00393255, Final residual = 0.000327177, No Iterations 3
smoothSolver:  Solving for Uy, Initial residual = 0.00316713, Final residual = 0.000281811, No Iterations 3
GAMG:  Solving for p, Initial residual = 0.00665493, Final residual = 0.000502715, No Iterations 2
time step continuity errors : sum local = 0.00175047, global = -0.000281958, cumulative = 0.00799685
smoothSolver:  Solving for omega, Initial residual = 0.00188911, Final residual = 0.000133832, No Iterations 2
smoothSolver:  Solving for k, Initial residual = 0.0131843, Final residual = 0.00068717, No Iterations 3
ExecutionTime = 0.85 s  ClockTime = 1 s

scalarTransport execute: age
smoothSolver:  Solving for age, Initial residual = 0.0106791, Final residual = 0.000936397, No Iterations 12

Time = 85

smoothSolver:  Solving for Ux, Initial residual = 0.00394509, Final residual = 0.000332858, No Iterations 3
smoothSolver:  Solving for Uy, Initial residual = 0.00315032, Final residual = 0.000277639, No Iterations 3
GAMG:  Solving for p, Initial residual = 0.00656406, Final residual = 0.000494061, No Iterations 2
time step continuity errors : sum local = 0.00173941, global = -0.000284393, cumulative = 0.00771246
smoothSolver:  Solving for omega, Initial residual = 0.00191606, Final residual = 0.000136764, No Iterations 2
smoothSolver:  Solving for k, Initial residual = 0.0132549, Final residual = 0.000699144, No Iterations 3
ExecutionTime = 0.86 s  ClockTime = 1 s

scalarTransport execute: age
smoothSolver:  Solving for age, Initial residual = 0.0106242, Final residual = 0.000936267, No Iterations 12

Time = 86

smoothSolver:  Solving for Ux, Initial residual = 0.00395194, Final residual = 0.000338849, No Iterations 3
smoothSolver:  Solving for Uy, Initial residual = 0.00314474, Final residual = 0.000275526, No Iterations 3
GAMG:  Solving for p, Initial residual = 0.00646986, Final residual = 0.000484788, No Iterations 2
time step continuity errors : sum local = 0.00172765, global = -0.000285151, cumulative = 0.00742731
smoothSolver:  Solving for omega, Initial residual = 0.00195717, Final residual = 0.000139785, No Iterations 2
smoothSolver:  Solving for k, Initial residual = 0.0134483, Final residual = 0.000709328, No Iterations 3
ExecutionTime = 0.87 s  ClockTime = 1 s

scalarTransport execute: age
smoothSolver:  Solving for age, Initial residual = 0.0106132, Final residual = 0.000936318, No Iterations 12

Time = 87

smoothSolver:  Solving for Ux, Initial residual = 0.00396723, Final residual = 0.000344168, No Iterations 3
smoothSolver:  Solving for Uy, Initial residual = 0.00317504, Final residual = 0.00027691, No Iterations 3
GAMG:  Solving for p, Initial residual = 0.0063664, Final residual = 0.00047811, No Iterations 2
time step continuity errors : sum local = 0.0017249, global = -0.000286217, cumulative = 0.00714109
smoothSolver:  Solving for omega, Initial residual = 0.00198949, Final residual = 0.000142736, No Iterations 2
smoothSolver:  Solving for k, Initial residual = 0.013618, Final residual = 0.000716787, No Iterations 3
ExecutionTime = 0.88 s  ClockTime = 1 s

scalarTransport execute: age
smoothSolver:  Solving for age, Initial residual = 0.0105673, Final residual = 0.000933693, No Iterations 12

Time = 88

smoothSolver:  Solving for Ux, Initial residual = 0.00398347, Final residual = 0.00034866, No Iterations 3
smoothSolver:  Solving for Uy, Initial residual = 0.00321967, Final residual = 0.000280941, No Iterations 3
GAMG:  Solving for p, Initial residual = 0.00627968, Final residual = 0.00047216, No Iterations 2
time step continuity errors : sum local = 0.00172595, global = -0.000286387, cumulative = 0.00685471
smoothSolver:  Solving for omega, Initial residual = 0.00203441, Final residual = 0.000145316, No Iterations 2
smoothSolver:  Solving for k, Initial residual = 0.0138475, Final residual = 0.000720317, No Iterations 3
ExecutionTime = 0.89 s  ClockTime = 1 s

scalarTransport execute: age
smoothSolver:  Solving for age, Initial residual = 0.010544, Final residual = 0.000924541, No Iterations 12

Time = 89

smoothSolver:  Solving for Ux, Initial residual = 0.00399782, Final residual = 0.000352081, No Iterations 3
smoothSolver:  Solving for Uy, Initial residual = 0.00325342, Final residual = 0.000287291, No Iterations 3
GAMG:  Solving for p, Initial residual = 0.00621167, Final residual = 0.000468951, No Iterations 2
time step continuity errors : sum local = 0.00173847, global = -0.000286141, cumulative = 0.00656857
smoothSolver:  Solving for omega, Initial residual = 0.00205083, Final residual = 0.000147231, No Iterations 2
smoothSolver:  Solving for k, Initial residual = 0.0140239, Final residual = 0.000720145, No Iterations 3
ExecutionTime = 0.9 s  ClockTime = 1 s

scalarTransport execute: age
smoothSolver:  Solving for age, Initial residual = 0.0104835, Final residual = 0.00104804, No Iterations 11

Time = 90

smoothSolver:  Solving for Ux, Initial residual = 0.00402647, Final residual = 0.000354555, No Iterations 3
smoothSolver:  Solving for Uy, Initial residual = 0.00329036, Final residual = 0.000293923, No Iterations 3
GAMG:  Solving for p, Initial residual = 0.00612093, Final residual = 0.000463961, No Iterations 2
time step continuity errors : sum local = 0.00174564, global = -0.000284983, cumulative = 0.00628358
smoothSolver:  Solving for omega, Initial residual = 0.00209225, Final residual = 0.000148813, No Iterations 2
smoothSolver:  Solving for k, Initial residual = 0.0141894, Final residual = 0.00071637, No Iterations 3
ExecutionTime = 0.91 s  ClockTime = 1 s

scalarTransport execute: age
smoothSolver:  Solving for age, Initial residual = 0.0104441, Final residual = 0.00103408, No Iterations 11

Time = 91

smoothSolver:  Solving for Ux, Initial residual = 0.00403675, Final residual = 0.000355895, No Iterations 3
smoothSolver:  Solving for Uy, Initial residual = 0.00331999, Final residual = 0.000299625, No Iterations 3
GAMG:  Solving for p, Initial residual = 0.00606614, Final residual = 0.000460444, No Iterations 2
time step continuity errors : sum local = 0.00174089, global = -0.000283363, cumulative = 0.00600022
smoothSolver:  Solving for omega, Initial residual = 0.0021056, Final residual = 0.00015014, No Iterations 2
smoothSolver:  Solving for k, Initial residual = 0.0143663, Final residual = 0.000709592, No Iterations 3
ExecutionTime = 0.92 s  ClockTime = 1 s

scalarTransport execute: age
smoothSolver:  Solving for age, Initial residual = 0.0103826, Final residual = 0.00101351, No Iterations 11

Time = 92

smoothSolver:  Solving for Ux, Initial residual = 0.00406541, Final residual = 0.000356625, No Iterations 3
smoothSolver:  Solving for Uy, Initial residual = 0.00334865, Final residual = 0.000303722, No Iterations 3
GAMG:  Solving for p, Initial residual = 0.0060375, Final residual = 0.000453884, No Iterations 2
time step continuity errors : sum local = 0.00172635, global = -0.000281294, cumulative = 0.00571893
smoothSolver:  Solving for omega, Initial residual = 0.00212057, Final residual = 0.000151265, No Iterations 2
smoothSolver:  Solving for k, Initial residual = 0.0144805, Final residual = 0.00070355, No Iterations 3
ExecutionTime = 0.93 s  ClockTime = 1 s

scalarTransport execute: age
smoothSolver:  Solving for age, Initial residual = 0.0102932, Final residual = 0.000987776, No Iterations 11

Time = 93

smoothSolver:  Solving for Ux, Initial residual = 0.00409344, Final residual = 0.00035667, No Iterations 3
smoothSolver:  Solving for Uy, Initial residual = 0.00336602, Final residual = 0.000305882, No Iterations 3
GAMG:  Solving for p, Initial residual = 0.00598399, Final residual = 0.000448113, No Iterations 2
time step continuity errors : sum local = 0.00171396, global = -0.000278382, cumulative = 0.00544054
smoothSolver:  Solving for omega, Initial residual = 0.00213736, Final residual = 0.000153118, No Iterations 2
smoothSolver:  Solving for k, Initial residual = 0.0146244, Final residual = 0.000697043, No Iterations 3
ExecutionTime = 0.94 s  ClockTime = 1 s

scalarTransport execute: age
smoothSolver:  Solving for age, Initial residual = 0.0102103, Final residual = 0.000958303, No Iterations 11

Time = 94

smoothSolver:  Solving for Ux, Initial residual = 0.00411104, Final residual = 0.00035702, No Iterations 3
smoothSolver:  Solving for Uy, Initial residual = 0.00337602, Final residual = 0.000305902, No Iterations 3
GAMG:  Solving for p, Initial residual = 0.00593211, Final residual = 0.000443208, No Iterations 2
time step continuity errors : sum local = 0.0017041, global = -0.000275264, cumulative = 0.00516528
smoothSolver:  Solving for omega, Initial residual = 0.00214907, Final residual = 0.000155361, No Iterations 2
smoothSolver:  Solving for k, Initial residual = 0.0147282, Final residual = 0.000692858, No Iterations 3
ExecutionTime = 0.94 s  ClockTime = 1 s

scalarTransport execute: age
smoothSolver:  Solving for age, Initial residual = 0.0101091, Final residual = 0.000927972, No Iterations 11

Time = 95

smoothSolver:  Solving for Ux, Initial residual = 0.00414592, Final residual = 0.00035848, No Iterations 3
smoothSolver:  Solving for Uy, Initial residual = 0.00337802, Final residual = 0.000304041, No Iterations 3
GAMG:  Solving for p, Initial residual = 0.00587039, Final residual = 0.000438135, No Iterations 2
time step continuity errors : sum local = 0.00169377, global = -0.000272575, cumulative = 0.00489271
smoothSolver:  Solving for omega, Initial residual = 0.00216001, Final residual = 0.000157497, No Iterations 2
smoothSolver:  Solving for k, Initial residual = 0.0148584, Final residual = 0.000689215, No Iterations 3
ExecutionTime = 0.96 s  ClockTime = 1 s

scalarTransport execute: age
smoothSolver:  Solving for age, Initial residual = 0.00999063, Final residual = 0.00089716, No Iterations 11

Time = 96

smoothSolver:  Solving for Ux, Initial residual = 0.00416961, Final residual = 0.000361393, No Iterations 3
smoothSolver:  Solving for Uy, Initial residual = 0.00336399, Final residual = 0.000300591, No Iterations 3
[...]
smoothSolver:  Solving for Uy, Initial residual = 7.14664e-07, Final residual = 6.79612e-08, No Iterations 3
GAMG:  Solving for p, Initial residual = 1.25338e-06, Final residual = 7.28964e-08, No Iterations 2
time step continuity errors : sum local = 2.30164e-07, global = -3.65922e-08, cumulative = -0.00319822
smoothSolver:  Solving for omega, Initial residual = 3.62705e-07, Final residual = 1.56834e-08, No Iterations 3
smoothSolver:  Solving for k, Initial residual = 1.99996e-06, Final residual = 1.00359e-07, No Iterations 3
ExecutionTime = 6.86 s  ClockTime = 7 s

scalarTransport execute: age
smoothSolver:  Solving for age, Initial residual = 0.000316532, Final residual = 3.09288e-05, No Iterations 14

Time = 674

smoothSolver:  Solving for Ux, Initial residual = 9.12475e-07, Final residual = 8.04236e-08, No Iterations 3
smoothSolver:  Solving for Uy, Initial residual = 7.08082e-07, Final residual = 6.73342e-08, No Iterations 3
GAMG:  Solving for p, Initial residual = 1.24054e-06, Final residual = 7.2139e-08, No Iterations 2
time step continuity errors : sum local = 2.27773e-07, global = -3.62288e-08, cumulative = -0.00319826
smoothSolver:  Solving for omega, Initial residual = 3.52398e-07, Final residual = 3.50121e-08, No Iterations 2
smoothSolver:  Solving for k, Initial residual = 1.984e-06, Final residual = 9.93947e-08, No Iterations 3
ExecutionTime = 6.87 s  ClockTime = 7 s

scalarTransport execute: age
smoothSolver:  Solving for age, Initial residual = 0.000315934, Final residual = 3.08706e-05, No Iterations 14

Time = 675

smoothSolver:  Solving for Ux, Initial residual = 9.03953e-07, Final residual = 7.96763e-08, No Iterations 3
smoothSolver:  Solving for Uy, Initial residual = 7.01486e-07, Final residual = 6.67255e-08, No Iterations 3
GAMG:  Solving for p, Initial residual = 1.22867e-06, Final residual = 7.13815e-08, No Iterations 2
time step continuity errors : sum local = 2.25381e-07, global = -3.5895e-08, cumulative = -0.00319829
smoothSolver:  Solving for omega, Initial residual = 3.53707e-07, Final residual = 1.52357e-08, No Iterations 3
smoothSolver:  Solving for k, Initial residual = 1.95873e-06, Final residual = 9.82079e-08, No Iterations 3
ExecutionTime = 6.88 s  ClockTime = 7 s

scalarTransport execute: age
smoothSolver:  Solving for age, Initial residual = 0.000315335, Final residual = 3.08126e-05, No Iterations 14

Time = 676

smoothSolver:  Solving for Ux, Initial residual = 8.95608e-07, Final residual = 7.89323e-08, No Iterations 3
smoothSolver:  Solving for Uy, Initial residual = 6.95016e-07, Final residual = 6.61021e-08, No Iterations 3
GAMG:  Solving for p, Initial residual = 1.2166e-06, Final residual = 7.07312e-08, No Iterations 2
time step continuity errors : sum local = 2.23328e-07, global = -3.5568e-08, cumulative = -0.00319833
smoothSolver:  Solving for omega, Initial residual = 3.44718e-07, Final residual = 3.41732e-08, No Iterations 2
smoothSolver:  Solving for k, Initial residual = 1.94419e-06, Final residual = 9.74278e-08, No Iterations 3
ExecutionTime = 6.89 s  ClockTime = 7 s

scalarTransport execute: age
smoothSolver:  Solving for age, Initial residual = 0.000314735, Final residual = 3.07548e-05, No Iterations 14

Time = 677

smoothSolver:  Solving for Ux, Initial residual = 8.87174e-07, Final residual = 7.81901e-08, No Iterations 3
smoothSolver:  Solving for Uy, Initial residual = 6.88557e-07, Final residual = 6.55038e-08, No Iterations 3
GAMG:  Solving for p, Initial residual = 1.20536e-06, Final residual = 7.01062e-08, No Iterations 2
time step continuity errors : sum local = 2.21355e-07, global = -3.52646e-08, cumulative = -0.00319837
smoothSolver:  Solving for omega, Initial residual = 3.46291e-07, Final residual = 1.48977e-08, No Iterations 3
smoothSolver:  Solving for k, Initial residual = 1.91983e-06, Final residual = 9.63487e-08, No Iterations 3
ExecutionTime = 6.91 s  ClockTime = 7 s

scalarTransport execute: age
smoothSolver:  Solving for age, Initial residual = 0.000314133, Final residual = 3.06973e-05, No Iterations 14

Time = 678

smoothSolver:  Solving for Ux, Initial residual = 8.78922e-07, Final residual = 7.74538e-08, No Iterations 3
smoothSolver:  Solving for Uy, Initial residual = 6.82187e-07, Final residual = 6.48925e-08, No Iterations 3
GAMG:  Solving for p, Initial residual = 1.19383e-06, Final residual = 6.95467e-08, No Iterations 2
time step continuity errors : sum local = 2.19589e-07, global = -3.49615e-08, cumulative = -0.0031984
smoothSolver:  Solving for omega, Initial residual = 3.37725e-07, Final residual = 3.34645e-08, No Iterations 2
smoothSolver:  Solving for k, Initial residual = 1.9059e-06, Final residual = 9.56782e-08, No Iterations 3
ExecutionTime = 6.92 s  ClockTime = 7 s

scalarTransport execute: age
smoothSolver:  Solving for age, Initial residual = 0.000313531, Final residual = 3.06399e-05, No Iterations 14

Time = 679

smoothSolver:  Solving for Ux, Initial residual = 8.70583e-07, Final residual = 7.6722e-08, No Iterations 3
smoothSolver:  Solving for Uy, Initial residual = 6.75802e-07, Final residual = 6.43052e-08, No Iterations 3
GAMG:  Solving for p, Initial residual = 1.183e-06, Final residual = 6.8949e-08, No Iterations 2
time step continuity errors : sum local = 2.17702e-07, global = -3.46739e-08, cumulative = -0.00319843
smoothSolver:  Solving for omega, Initial residual = 3.39371e-07, Final residual = 1.46042e-08, No Iterations 3
smoothSolver:  Solving for k, Initial residual = 1.88206e-06, Final residual = 9.46763e-08, No Iterations 3
ExecutionTime = 6.93 s  ClockTime = 7 s

scalarTransport execute: age
smoothSolver:  Solving for age, Initial residual = 0.000312934, Final residual = 3.05827e-05, No Iterations 14

Time = 680

smoothSolver:  Solving for Ux, Initial residual = 8.62411e-07, Final residual = 7.59974e-08, No Iterations 3
smoothSolver:  Solving for Uy, Initial residual = 6.6949e-07, Final residual = 6.37036e-08, No Iterations 3
GAMG:  Solving for p, Initial residual = 1.17157e-06, Final residual = 6.83566e-08, No Iterations 2
time step continuity errors : sum local = 2.15832e-07, global = -3.43803e-08, cumulative = -0.00319847
smoothSolver:  Solving for omega, Initial residual = 3.31049e-07, Final residual = 3.28166e-08, No Iterations 2
smoothSolver:  Solving for k, Initial residual = 1.86851e-06, Final residual = 9.41026e-08, No Iterations 3
ExecutionTime = 6.94 s  ClockTime = 7 s

scalarTransport execute: age
smoothSolver:  Solving for age, Initial residual = 0.000312343, Final residual = 3.05257e-05, No Iterations 14

Time = 681

smoothSolver:  Solving for Ux, Initial residual = 8.54145e-07, Final residual = 7.52759e-08, No Iterations 3
smoothSolver:  Solving for Uy, Initial residual = 6.63155e-07, Final residual = 6.31251e-08, No Iterations 3
GAMG:  Solving for p, Initial residual = 1.1607e-06, Final residual = 6.77001e-08, No Iterations 2
time step continuity errors : sum local = 2.13759e-07, global = -3.40955e-08, cumulative = -0.0031985
smoothSolver:  Solving for omega, Initial residual = 3.32698e-07, Final residual = 1.43335e-08, No Iterations 3
smoothSolver:  Solving for k, Initial residual = 1.84521e-06, Final residual = 9.31695e-08, No Iterations 3
ExecutionTime = 6.95 s  ClockTime = 7 s

scalarTransport execute: age
smoothSolver:  Solving for age, Initial residual = 0.000311765, Final residual = 3.04689e-05, No Iterations 14

Time = 682

smoothSolver:  Solving for Ux, Initial residual = 8.4604e-07, Final residual = 7.45596e-08, No Iterations 3
smoothSolver:  Solving for Uy, Initial residual = 6.56897e-07, Final residual = 6.25333e-08, No Iterations 3
GAMG:  Solving for p, Initial residual = 1.14913e-06, Final residual = 6.70465e-08, No Iterations 2
time step continuity errors : sum local = 2.11695e-07, global = -3.38005e-08, cumulative = -0.00319854
smoothSolver:  Solving for omega, Initial residual = 3.24554e-07, Final residual = 3.22016e-08, No Iterations 2
smoothSolver:  Solving for k, Initial residual = 1.83205e-06, Final residual = 9.2661e-08, No Iterations 3
ExecutionTime = 6.96 s  ClockTime = 7 s

scalarTransport execute: age
smoothSolver:  Solving for age, Initial residual = 0.000311188, Final residual = 3.04122e-05, No Iterations 14

Time = 683

smoothSolver:  Solving for Ux, Initial residual = 8.37844e-07, Final residual = 7.38454e-08, No Iterations 3
smoothSolver:  Solving for Uy, Initial residual = 6.50627e-07, Final residual = 6.19649e-08, No Iterations 3
GAMG:  Solving for p, Initial residual = 1.13813e-06, Final residual = 6.63481e-08, No Iterations 2
time step continuity errors : sum local = 2.0949e-07, global = -3.35115e-08, cumulative = -0.00319857
smoothSolver:  Solving for omega, Initial residual = 3.26177e-07, Final residual = 1.40755e-08, No Iterations 3
smoothSolver:  Solving for k, Initial residual = 1.80932e-06, Final residual = 9.17816e-08, No Iterations 3
ExecutionTime = 6.97 s  ClockTime = 7 s

scalarTransport execute: age
smoothSolver:  Solving for age, Initial residual = 0.000310614, Final residual = 3.03556e-05, No Iterations 14

Time = 684

smoothSolver:  Solving for Ux, Initial residual = 8.29824e-07, Final residual = 7.31376e-08, No Iterations 3
smoothSolver:  Solving for Uy, Initial residual = 6.44456e-07, Final residual = 6.13832e-08, No Iterations 3
GAMG:  Solving for p, Initial residual = 1.12655e-06, Final residual = 6.56809e-08, No Iterations 2
time step continuity errors : sum local = 2.07384e-07, global = -3.32119e-08, cumulative = -0.0031986
smoothSolver:  Solving for omega, Initial residual = 3.18192e-07, Final residual = 3.16055e-08, No Iterations 2
smoothSolver:  Solving for k, Initial residual = 1.79665e-06, Final residual = 9.13435e-08, No Iterations 3
ExecutionTime = 6.98 s  ClockTime = 7 s

scalarTransport execute: age
smoothSolver:  Solving for age, Initial residual = 0.000310038, Final residual = 3.02993e-05, No Iterations 14

Time = 685

smoothSolver:  Solving for Ux, Initial residual = 8.21723e-07, Final residual = 7.24336e-08, No Iterations 3
smoothSolver:  Solving for Uy, Initial residual = 6.38294e-07, Final residual = 6.08225e-08, No Iterations 3
GAMG:  Solving for p, Initial residual = 1.11564e-06, Final residual = 6.49957e-08, No Iterations 2
time step continuity errors : sum local = 2.05221e-07, global = -3.29193e-08, cumulative = -0.00319864
smoothSolver:  Solving for omega, Initial residual = 3.19782e-07, Final residual = 1.3824e-08, No Iterations 3
smoothSolver:  Solving for k, Initial residual = 1.77445e-06, Final residual = 9.05152e-08, No Iterations 3
ExecutionTime = 6.99 s  ClockTime = 7 s

scalarTransport execute: age
smoothSolver:  Solving for age, Initial residual = 0.000309461, Final residual = 3.02432e-05, No Iterations 14

Time = 686

smoothSolver:  Solving for Ux, Initial residual = 8.13815e-07, Final residual = 7.17373e-08, No Iterations 3
smoothSolver:  Solving for Uy, Initial residual = 6.32245e-07, Final residual = 6.02474e-08, No Iterations 3
GAMG:  Solving for p, Initial residual = 1.10433e-06, Final residual = 6.43599e-08, No Iterations 2
time step continuity errors : sum local = 2.03213e-07, global = -3.26181e-08, cumulative = -0.00319867
smoothSolver:  Solving for omega, Initial residual = 3.1195e-07, Final residual = 3.10203e-08, No Iterations 2
smoothSolver:  Solving for k, Initial residual = 1.76216e-06, Final residual = 9.0123e-08, No Iterations 3
ExecutionTime = 7 s  ClockTime = 7 s

scalarTransport execute: age
smoothSolver:  Solving for age, Initial residual = 0.000308893, Final residual = 3.01872e-05, No Iterations 14

Time = 687

smoothSolver:  Solving for Ux, Initial residual = 8.05841e-07, Final residual = 7.10453e-08, No Iterations 3
smoothSolver:  Solving for Uy, Initial residual = 6.26214e-07, Final residual = 5.96931e-08, No Iterations 3
GAMG:  Solving for p, Initial residual = 1.09373e-06, Final residual = 6.37157e-08, No Iterations 2
time step continuity errors : sum local = 2.0118e-07, global = -3.2325e-08, cumulative = -0.0031987
smoothSolver:  Solving for omega, Initial residual = 3.13507e-07, Final residual = 1.35752e-08, No Iterations 3
smoothSolver:  Solving for k, Initial residual = 1.74043e-06, Final residual = 8.93225e-08, No Iterations 3
ExecutionTime = 7.01 s  ClockTime = 7 s

scalarTransport execute: age
smoothSolver:  Solving for age, Initial residual = 0.000308325, Final residual = 3.01313e-05, No Iterations 14

Time = 688

smoothSolver:  Solving for Ux, Initial residual = 7.98068e-07, Final residual = 7.03605e-08, No Iterations 3
smoothSolver:  Solving for Uy, Initial residual = 6.20281e-07, Final residual = 5.91239e-08, No Iterations 3
GAMG:  Solving for p, Initial residual = 1.08274e-06, Final residual = 6.31212e-08, No Iterations 2
time step continuity errors : sum local = 1.99302e-07, global = -3.20245e-08, cumulative = -0.00319873
smoothSolver:  Solving for omega, Initial residual = 3.05822e-07, Final residual = 3.0442e-08, No Iterations 2
smoothSolver:  Solving for k, Initial residual = 1.72841e-06, Final residual = 8.89585e-08, No Iterations 3
ExecutionTime = 7.02 s  ClockTime = 7 s

scalarTransport execute: age
smoothSolver:  Solving for age, Initial residual = 0.000307748, Final residual = 3.00755e-05, No Iterations 14

Time = 689

smoothSolver:  Solving for Ux, Initial residual = 7.90227e-07, Final residual = 6.96773e-08, No Iterations 3
smoothSolver:  Solving for Uy, Initial residual = 6.14349e-07, Final residual = 5.85744e-08, No Iterations 3
GAMG:  Solving for p, Initial residual = 1.07243e-06, Final residual = 6.25141e-08, No Iterations 2
time step continuity errors : sum local = 1.97386e-07, global = -3.17321e-08, cumulative = -0.00319877
smoothSolver:  Solving for omega, Initial residual = 3.07347e-07, Final residual = 1.33282e-08, No Iterations 3
smoothSolver:  Solving for k, Initial residual = 1.70706e-06, Final residual = 8.81866e-08, No Iterations 3
ExecutionTime = 7.03 s  ClockTime = 7 s

scalarTransport execute: age
smoothSolver:  Solving for age, Initial residual = 0.000307168, Final residual = 3.00198e-05, No Iterations 14

Time = 690

smoothSolver:  Solving for Ux, Initial residual = 7.8258e-07, Final residual = 6.89989e-08, No Iterations 3
smoothSolver:  Solving for Uy, Initial residual = 6.08494e-07, Final residual = 5.80105e-08, No Iterations 3
GAMG:  Solving for p, Initial residual = 1.06168e-06, Final residual = 6.19485e-08, No Iterations 2
time step continuity errors : sum local = 1.956e-07, global = -3.14321e-08, cumulative = -0.0031988
smoothSolver:  Solving for omega, Initial residual = 2.9981e-07, Final residual = 2.98697e-08, No Iterations 2
smoothSolver:  Solving for k, Initial residual = 1.69532e-06, Final residual = 8.78576e-08, No Iterations 3
ExecutionTime = 7.05 s  ClockTime = 7 s

scalarTransport execute: age
smoothSolver:  Solving for age, Initial residual = 0.000306591, Final residual = 2.99642e-05, No Iterations 14

Time = 691

smoothSolver:  Solving for Ux, Initial residual = 7.74846e-07, Final residual = 6.83191e-08, No Iterations 3
smoothSolver:  Solving for Uy, Initial residual = 6.02628e-07, Final residual = 5.7465e-08, No Iterations 3
GAMG:  Solving for p, Initial residual = 1.05153e-06, Final residual = 6.13625e-08, No Iterations 2
time step continuity errors : sum local = 1.9375e-07, global = -3.11396e-08, cumulative = -0.00319883
smoothSolver:  Solving for omega, Initial residual = 3.01303e-07, Final residual = 1.30834e-08, No Iterations 3
smoothSolver:  Solving for k, Initial residual = 1.67441e-06, Final residual = 8.71072e-08, No Iterations 3
ExecutionTime = 7.06 s  ClockTime = 7 s

scalarTransport execute: age
smoothSolver:  Solving for age, Initial residual = 0.000305996, Final residual = 2.99087e-05, No Iterations 14

Time = 692

smoothSolver:  Solving for Ux, Initial residual = 7.67283e-07, Final residual = 6.76429e-08, No Iterations 3
smoothSolver:  Solving for Uy, Initial residual = 5.96828e-07, Final residual = 5.69044e-08, No Iterations 3
GAMG:  Solving for p, Initial residual = 1.04088e-06, Final residual = 6.081e-08, No Iterations 2
time step continuity errors : sum local = 1.92006e-07, global = -3.08391e-08, cumulative = -0.00319886
smoothSolver:  Solving for omega, Initial residual = 2.93914e-07, Final residual = 2.93045e-08, No Iterations 2
smoothSolver:  Solving for k, Initial residual = 1.663e-06, Final residual = 8.67941e-08, No Iterations 3
ExecutionTime = 7.07 s  ClockTime = 7 s

scalarTransport execute: age
smoothSolver:  Solving for age, Initial residual = 0.000305403, Final residual = 2.98534e-05, No Iterations 14

Time = 693

smoothSolver:  Solving for Ux, Initial residual = 7.59616e-07, Final residual = 6.69651e-08, No Iterations 3
smoothSolver:  Solving for Uy, Initial residual = 5.91012e-07, Final residual = 5.63632e-08, No Iterations 3
GAMG:  Solving for p, Initial residual = 1.03078e-06, Final residual = 6.02298e-08, No Iterations 2
time step continuity errors : sum local = 1.90174e-07, global = -3.05457e-08, cumulative = -0.00319889
smoothSolver:  Solving for omega, Initial residual = 2.95373e-07, Final residual = 1.28417e-08, No Iterations 3
smoothSolver:  Solving for k, Initial residual = 1.64253e-06, Final residual = 8.60615e-08, No Iterations 3
ExecutionTime = 7.08 s  ClockTime = 7 s

scalarTransport execute: age
smoothSolver:  Solving for age, Initial residual = 0.000304818, Final residual = 2.97983e-05, No Iterations 14

Time = 694

smoothSolver:  Solving for Ux, Initial residual = 7.52109e-07, Final residual = 6.62927e-08, No Iterations 3
smoothSolver:  Solving for Uy, Initial residual = 5.8526e-07, Final residual = 5.58086e-08, No Iterations 3
GAMG:  Solving for p, Initial residual = 1.02021e-06, Final residual = 5.96777e-08, No Iterations 2
time step continuity errors : sum local = 1.88431e-07, global = -3.02445e-08, cumulative = -0.00319892
smoothSolver:  Solving for omega, Initial residual = 2.88124e-07, Final residual = 2.87471e-08, No Iterations 2
smoothSolver:  Solving for k, Initial residual = 1.63139e-06, Final residual = 8.57636e-08, No Iterations 3
ExecutionTime = 7.1 s  ClockTime = 7 s

scalarTransport execute: age
smoothSolver:  Solving for age, Initial residual = 0.000304237, Final residual = 2.97435e-05, No Iterations 14

Time = 695

smoothSolver:  Solving for Ux, Initial residual = 7.44495e-07, Final residual = 6.56196e-08, No Iterations 3
smoothSolver:  Solving for Uy, Initial residual = 5.79491e-07, Final residual = 5.52751e-08, No Iterations 3
GAMG:  Solving for p, Initial residual = 1.01019e-06, Final residual = 5.90966e-08, No Iterations 2
time step continuity errors : sum local = 1.86596e-07, global = -2.99508e-08, cumulative = -0.00319895
smoothSolver:  Solving for omega, Initial residual = 2.8954e-07, Final residual = 1.26034e-08, No Iterations 3
smoothSolver:  Solving for k, Initial residual = 1.6113e-06, Final residual = 8.50376e-08, No Iterations 3
ExecutionTime = 7.11 s  ClockTime = 7 s

scalarTransport execute: age
smoothSolver:  Solving for age, Initial residual = 0.00030366, Final residual = 2.96889e-05, No Iterations 14

Time = 696

smoothSolver:  Solving for Ux, Initial residual = 7.37047e-07, Final residual = 6.49548e-08, No Iterations 3
smoothSolver:  Solving for Uy, Initial residual = 5.73786e-07, Final residual = 5.473e-08, No Iterations 3
GAMG:  Solving for p, Initial residual = 9.99753e-07, Final residual = 5.85439e-08, No Iterations 2
time step continuity errors : sum local = 1.84851e-07, global = -2.965e-08, cumulative = -0.00319898
smoothSolver:  Solving for omega, Initial residual = 2.82418e-07, Final residual = 2.81965e-08, No Iterations 2
smoothSolver:  Solving for k, Initial residual = 1.60036e-06, Final residual = 8.47447e-08, No Iterations 3
ExecutionTime = 7.13 s  ClockTime = 7 s


SIMPLE solution converged in 696 iterations

scalarTransport execute: age
smoothSolver:  Solving for age, Initial residual = 0.000303091, Final residual = 2.96347e-05, No Iterations 14

End

