/*---------------------------------------------------------------------------*\
| =========                 |                                                 |
| \\      /  F ield         | OpenFOAM: The Open Source CFD Toolbox           |
|  \\    /   O peration     | Version:  v2012                                 |
|   \\  /    A nd           | Website:  www.openfoam.com                      |
|    \\/     M anipulation  |                                                 |
\*---------------------------------------------------------------------------*/
Build  : _7bdb509494-20201222 OPENFOAM=2012
Arch   : "LSB;label=32;scalar=64"
Exec   : simpleFoam
Date   : Feb 23 2023
Time   : 22:54:17
Host   : johnsDesktop
PID    : 17084
I/O    : uncollated
Case   : /home/john/of_runs/cases/dbl_0_46_6-09400_8
nProcs : 1
trapFpe: Floating point exception trapping enabled (FOAM_SIGFPE).
fileModificationChecking : Monitoring run-time modified files using timeStampMaster (fileModificationSkew 5, maxFileModificationPolls 20)
allowSystemOperations : Allowing user-supplied system call operations

// * * * * * * * * * * * * * * * * * * * * * * * * * * * * * * * * * * * * * //
Create time

Create mesh for time = 0


SIMPLE: convergence criteria
    field p	 tolerance 1e-06
    field U	 tolerance 1e-06
    field "(k|epsilon|omega|f|v2|age)"	 tolerance 1e-05

Reading field p

Reading field U

Reading/calculating face flux field phi

Selecting incompressible transport model Newtonian
Selecting turbulence model type RAS
Selecting RAS turbulence model kOmegaSST
Selecting patchDistMethod meshWave
RAS
{
    RASModel        kOmegaSST;
    turbulence      on;
    printCoeffs     on;
    alphaK1         0.85;
    alphaK2         1;
    alphaOmega1     0.5;
    alphaOmega2     0.856;
    gamma1          0.555556;
    gamma2          0.44;
    beta1           0.075;
    beta2           0.0828;
    betaStar        0.09;
    a1              0.31;
    b1              1;
    c1              10;
    F3              false;
    decayControl    false;
    kInf            0;
    omegaInf        0;
}

No MRF models present

No finite volume options present

Starting time loop

Selecting finite volume options type scalarSemiImplicitSource
    Source: unitySource
    - selecting all cells
    - selected 6532 cell(s) with volume 0.03154
Time = 1

smoothSolver:  Solving for Ux, Initial residual = 0, Final residual = 0, No Iterations 0
smoothSolver:  Solving for Uy, Initial residual = 1, Final residual = 0.0643297, No Iterations 2
GAMG:  Solving for p, Initial residual = 1, Final residual = 0.0835695, No Iterations 6
time step continuity errors : sum local = 0.00529927, global = -0.000785008, cumulative = -0.000785008
smoothSolver:  Solving for omega, Initial residual = 0.248415, Final residual = 0.0121822, No Iterations 3
smoothSolver:  Solving for k, Initial residual = 1, Final residual = 0.079922, No Iterations 3
ExecutionTime = 0.07 s  ClockTime = 0 s

scalarTransport execute: age
smoothSolver:  Solving for age, Initial residual = 1, Final residual = 0.0899167, No Iterations 6

Time = 2

smoothSolver:  Solving for Ux, Initial residual = 0.555268, Final residual = 0.045751, No Iterations 6
smoothSolver:  Solving for Uy, Initial residual = 0.274917, Final residual = 0.0268321, No Iterations 5
GAMG:  Solving for p, Initial residual = 0.0584079, Final residual = 0.00461663, No Iterations 3
time step continuity errors : sum local = 0.0543929, global = 0.00499357, cumulative = 0.00420856
smoothSolver:  Solving for omega, Initial residual = 0.244811, Final residual = 0.0225086, No Iterations 3
smoothSolver:  Solving for k, Initial residual = 0.60033, Final residual = 0.0537298, No Iterations 4
ExecutionTime = 0.08 s  ClockTime = 0 s

scalarTransport execute: age
smoothSolver:  Solving for age, Initial residual = 0.609597, Final residual = 0.0563721, No Iterations 8

Time = 3

smoothSolver:  Solving for Ux, Initial residual = 0.184403, Final residual = 0.0169708, No Iterations 5
smoothSolver:  Solving for Uy, Initial residual = 0.105529, Final residual = 0.00904187, No Iterations 5
GAMG:  Solving for p, Initial residual = 0.0546341, Final residual = 0.00319062, No Iterations 3
time step continuity errors : sum local = 0.0174252, global = 0.00296379, cumulative = 0.00717236
smoothSolver:  Solving for omega, Initial residual = 0.227381, Final residual = 0.0208307, No Iterations 4
smoothSolver:  Solving for k, Initial residual = 0.496319, Final residual = 0.0358424, No Iterations 5
ExecutionTime = 0.09 s  ClockTime = 0 s

scalarTransport execute: age
smoothSolver:  Solving for age, Initial residual = 0.408108, Final residual = 0.0353837, No Iterations 9

Time = 4

smoothSolver:  Solving for Ux, Initial residual = 0.0937019, Final residual = 0.00735386, No Iterations 5
smoothSolver:  Solving for Uy, Initial residual = 0.0514549, Final residual = 0.00338104, No Iterations 5
GAMG:  Solving for p, Initial residual = 0.0792868, Final residual = 0.00334607, No Iterations 3
time step continuity errors : sum local = 0.0106321, global = 0.000537082, cumulative = 0.00770944
smoothSolver:  Solving for omega, Initial residual = 0.133529, Final residual = 0.00875731, No Iterations 5
smoothSolver:  Solving for k, Initial residual = 0.422717, Final residual = 0.0345414, No Iterations 5
ExecutionTime = 0.11 s  ClockTime = 0 s

scalarTransport execute: age
smoothSolver:  Solving for age, Initial residual = 0.290961, Final residual = 0.0273904, No Iterations 9

Time = 5

smoothSolver:  Solving for Ux, Initial residual = 0.0581246, Final residual = 0.00516546, No Iterations 5
smoothSolver:  Solving for Uy, Initial residual = 0.0343044, Final residual = 0.00239768, No Iterations 5
GAMG:  Solving for p, Initial residual = 0.0798912, Final residual = 0.00299095, No Iterations 2
time step continuity errors : sum local = 0.00832886, global = -0.000768616, cumulative = 0.00694082
smoothSolver:  Solving for omega, Initial residual = 0.0911089, Final residual = 0.0066065, No Iterations 5
smoothSolver:  Solving for k, Initial residual = 0.328754, Final residual = 0.0291025, No Iterations 5
ExecutionTime = 0.12 s  ClockTime = 0 s

scalarTransport execute: age
smoothSolver:  Solving for age, Initial residual = 0.222059, Final residual = 0.0196301, No Iterations 10

Time = 6

smoothSolver:  Solving for Ux, Initial residual = 0.0432689, Final residual = 0.00420451, No Iterations 5
smoothSolver:  Solving for Uy, Initial residual = 0.0267057, Final residual = 0.00204656, No Iterations 5
GAMG:  Solving for p, Initial residual = 0.0635366, Final residual = 0.00266645, No Iterations 2
time step continuity errors : sum local = 0.0075494, global = -0.00126451, cumulative = 0.00567632
smoothSolver:  Solving for omega, Initial residual = 0.0695581, Final residual = 0.0054044, No Iterations 5
smoothSolver:  Solving for k, Initial residual = 0.263699, Final residual = 0.0247698, No Iterations 5
ExecutionTime = 0.13 s  ClockTime = 0 s

scalarTransport execute: age
smoothSolver:  Solving for age, Initial residual = 0.178485, Final residual = 0.0170084, No Iterations 10

Time = 7

smoothSolver:  Solving for Ux, Initial residual = 0.036695, Final residual = 0.00355178, No Iterations 5
smoothSolver:  Solving for Uy, Initial residual = 0.0230755, Final residual = 0.00187868, No Iterations 5
GAMG:  Solving for p, Initial residual = 0.0505449, Final residual = 0.00290813, No Iterations 2
time step continuity errors : sum local = 0.00850645, global = -0.00120931, cumulative = 0.00446701
smoothSolver:  Solving for omega, Initial residual = 0.0529702, Final residual = 0.00439157, No Iterations 5
smoothSolver:  Solving for k, Initial residual = 0.218434, Final residual = 0.0214156, No Iterations 5
ExecutionTime = 0.15 s  ClockTime = 0 s

scalarTransport execute: age
smoothSolver:  Solving for age, Initial residual = 0.148902, Final residual = 0.0128693, No Iterations 11

Time = 8

smoothSolver:  Solving for Ux, Initial residual = 0.0324975, Final residual = 0.00311119, No Iterations 5
smoothSolver:  Solving for Uy, Initial residual = 0.0215067, Final residual = 0.0018282, No Iterations 5
GAMG:  Solving for p, Initial residual = 0.0400634, Final residual = 0.00232678, No Iterations 2
time step continuity errors : sum local = 0.00715857, global = -0.00104274, cumulative = 0.00342427
smoothSolver:  Solving for omega, Initial residual = 0.0420876, Final residual = 0.0036276, No Iterations 5
smoothSolver:  Solving for k, Initial residual = 0.185755, Final residual = 0.0119451, No Iterations 6
ExecutionTime = 0.16 s  ClockTime = 0 s

scalarTransport execute: age
smoothSolver:  Solving for age, Initial residual = 0.127822, Final residual = 0.0116041, No Iterations 11

Time = 9

smoothSolver:  Solving for Ux, Initial residual = 0.0296603, Final residual = 0.00284895, No Iterations 5
smoothSolver:  Solving for Uy, Initial residual = 0.0204921, Final residual = 0.00174482, No Iterations 5
GAMG:  Solving for p, Initial residual = 0.0324968, Final residual = 0.00100517, No Iterations 2
time step continuity errors : sum local = 0.00319614, global = -0.000742304, cumulative = 0.00268197
smoothSolver:  Solving for omega, Initial residual = 0.0345368, Final residual = 0.00306396, No Iterations 5
smoothSolver:  Solving for k, Initial residual = 0.161278, Final residual = 0.0106936, No Iterations 6
ExecutionTime = 0.17 s  ClockTime = 0 s

scalarTransport execute: age
smoothSolver:  Solving for age, Initial residual = 0.113776, Final residual = 0.0101319, No Iterations 11

Time = 10

smoothSolver:  Solving for Ux, Initial residual = 0.027135, Final residual = 0.0026555, No Iterations 5
smoothSolver:  Solving for Uy, Initial residual = 0.0191515, Final residual = 0.0017113, No Iterations 5
GAMG:  Solving for p, Initial residual = 0.0285145, Final residual = 0.0010682, No Iterations 2
time step continuity errors : sum local = 0.00339335, global = -0.00052512, cumulative = 0.00215685
smoothSolver:  Solving for omega, Initial residual = 0.0286932, Final residual = 0.00260933, No Iterations 5
smoothSolver:  Solving for k, Initial residual = 0.142169, Final residual = 0.00966333, No Iterations 6
ExecutionTime = 0.19 s  ClockTime = 0 s

scalarTransport execute: age
smoothSolver:  Solving for age, Initial residual = 0.0992234, Final residual = 0.0090525, No Iterations 11

Time = 11

smoothSolver:  Solving for Ux, Initial residual = 0.0255673, Final residual = 0.00253561, No Iterations 5
smoothSolver:  Solving for Uy, Initial residual = 0.0183048, Final residual = 0.00167393, No Iterations 5
GAMG:  Solving for p, Initial residual = 0.0265997, Final residual = 0.00109567, No Iterations 2
time step continuity errors : sum local = 0.00347, global = -0.000342209, cumulative = 0.00181464
smoothSolver:  Solving for omega, Initial residual = 0.0241424, Final residual = 0.00224165, No Iterations 5
smoothSolver:  Solving for k, Initial residual = 0.126932, Final residual = 0.0088026, No Iterations 6
ExecutionTime = 0.2 s  ClockTime = 0 s

scalarTransport execute: age
smoothSolver:  Solving for age, Initial residual = 0.086865, Final residual = 0.00822419, No Iterations 11

Time = 12

smoothSolver:  Solving for Ux, Initial residual = 0.0243798, Final residual = 0.00243332, No Iterations 5
smoothSolver:  Solving for Uy, Initial residual = 0.0176573, Final residual = 0.00163963, No Iterations 5
GAMG:  Solving for p, Initial residual = 0.0251974, Final residual = 0.00108883, No Iterations 2
time step continuity errors : sum local = 0.00342829, global = -0.000149243, cumulative = 0.0016654
smoothSolver:  Solving for omega, Initial residual = 0.0206099, Final residual = 0.00194268, No Iterations 5
smoothSolver:  Solving for k, Initial residual = 0.114507, Final residual = 0.00807385, No Iterations 6
ExecutionTime = 0.21 s  ClockTime = 0 s

scalarTransport execute: age
smoothSolver:  Solving for age, Initial residual = 0.0762662, Final residual = 0.0075187, No Iterations 11

Time = 13

smoothSolver:  Solving for Ux, Initial residual = 0.0231997, Final residual = 0.00151697, No Iterations 6
smoothSolver:  Solving for Uy, Initial residual = 0.0171863, Final residual = 0.00161299, No Iterations 5
GAMG:  Solving for p, Initial residual = 0.024067, Final residual = 0.00108239, No Iterations 2
time step continuity errors : sum local = 0.0033839, global = 4.09601e-05, cumulative = 0.00170636
smoothSolver:  Solving for omega, Initial residual = 0.0177603, Final residual = 0.00169632, No Iterations 5
smoothSolver:  Solving for k, Initial residual = 0.104225, Final residual = 0.0074496, No Iterations 6
ExecutionTime = 0.22 s  ClockTime = 0 s

scalarTransport execute: age
smoothSolver:  Solving for age, Initial residual = 0.0669255, Final residual = 0.00580173, No Iterations 12

Time = 14

smoothSolver:  Solving for Ux, Initial residual = 0.0218564, Final residual = 0.00217936, No Iterations 5
smoothSolver:  Solving for Uy, Initial residual = 0.0168909, Final residual = 0.00159555, No Iterations 5
GAMG:  Solving for p, Initial residual = 0.0231566, Final residual = 0.00103334, No Iterations 2
time step continuity errors : sum local = 0.0032012, global = 0.000214167, cumulative = 0.00192052
smoothSolver:  Solving for omega, Initial residual = 0.015469, Final residual = 0.00149149, No Iterations 5
smoothSolver:  Solving for k, Initial residual = 0.0955679, Final residual = 0.00690876, No Iterations 6
ExecutionTime = 0.24 s  ClockTime = 0 s

scalarTransport execute: age
smoothSolver:  Solving for age, Initial residual = 0.0586116, Final residual = 0.00522878, No Iterations 12

Time = 15

smoothSolver:  Solving for Ux, Initial residual = 0.0207842, Final residual = 0.00206011, No Iterations 5
smoothSolver:  Solving for Uy, Initial residual = 0.0165665, Final residual = 0.00156932, No Iterations 5
GAMG:  Solving for p, Initial residual = 0.0222455, Final residual = 0.000998401, No Iterations 2
time step continuity errors : sum local = 0.00305897, global = 0.000365353, cumulative = 0.00228588
smoothSolver:  Solving for omega, Initial residual = 0.0136086, Final residual = 0.00132051, No Iterations 5
smoothSolver:  Solving for k, Initial residual = 0.0881942, Final residual = 0.0064356, No Iterations 6
ExecutionTime = 0.25 s  ClockTime = 0 s

scalarTransport execute: age
smoothSolver:  Solving for age, Initial residual = 0.0512094, Final residual = 0.0047053, No Iterations 12

Time = 16

smoothSolver:  Solving for Ux, Initial residual = 0.0197457, Final residual = 0.00194681, No Iterations 5
smoothSolver:  Solving for Uy, Initial residual = 0.016262, Final residual = 0.00154125, No Iterations 5
GAMG:  Solving for p, Initial residual = 0.0214285, Final residual = 0.00100832, No Iterations 2
time step continuity errors : sum local = 0.0030489, global = 0.000483823, cumulative = 0.0027697
smoothSolver:  Solving for omega, Initial residual = 0.0120798, Final residual = 0.00117669, No Iterations 5
smoothSolver:  Solving for k, Initial residual = 0.0818238, Final residual = 0.00601728, No Iterations 6
ExecutionTime = 0.26 s  ClockTime = 0 s

scalarTransport execute: age
smoothSolver:  Solving for age, Initial residual = 0.0449816, Final residual = 0.00422156, No Iterations 12

Time = 17

smoothSolver:  Solving for Ux, Initial residual = 0.0187327, Final residual = 0.00183783, No Iterations 5
smoothSolver:  Solving for Uy, Initial residual = 0.0159807, Final residual = 0.00151212, No Iterations 5
GAMG:  Solving for p, Initial residual = 0.020579, Final residual = 0.00102735, No Iterations 2
time step continuity errors : sum local = 0.00306467, global = 0.000556295, cumulative = 0.00332599
smoothSolver:  Solving for omega, Initial residual = 0.0107991, Final residual = 0.00105469, No Iterations 5
smoothSolver:  Solving for k, Initial residual = 0.0762599, Final residual = 0.00564418, No Iterations 6
ExecutionTime = 0.28 s  ClockTime = 0 s

scalarTransport execute: age
smoothSolver:  Solving for age, Initial residual = 0.039662, Final residual = 0.00377116, No Iterations 12

Time = 18

smoothSolver:  Solving for Ux, Initial residual = 0.0177686, Final residual = 0.00173596, No Iterations 5
smoothSolver:  Solving for Uy, Initial residual = 0.0156466, Final residual = 0.00148095, No Iterations 5
GAMG:  Solving for p, Initial residual = 0.0196837, Final residual = 0.000987669, No Iterations 2
time step continuity errors : sum local = 0.00290874, global = 0.000568171, cumulative = 0.00389417
smoothSolver:  Solving for omega, Initial residual = 0.00971368, Final residual = 0.000950385, No Iterations 5
smoothSolver:  Solving for k, Initial residual = 0.0713429, Final residual = 0.00530861, No Iterations 6
ExecutionTime = 0.29 s  ClockTime = 0 s

scalarTransport execute: age
smoothSolver:  Solving for age, Initial residual = 0.0352202, Final residual = 0.00336665, No Iterations 12

Time = 19

smoothSolver:  Solving for Ux, Initial residual = 0.0168893, Final residual = 0.00164655, No Iterations 5
smoothSolver:  Solving for Uy, Initial residual = 0.0152858, Final residual = 0.00144768, No Iterations 5
GAMG:  Solving for p, Initial residual = 0.01875, Final residual = 0.000915717, No Iterations 2
time step continuity errors : sum local = 0.00266289, global = 0.000547351, cumulative = 0.00444152
smoothSolver:  Solving for omega, Initial residual = 0.00876718, Final residual = 0.000859353, No Iterations 5
smoothSolver:  Solving for k, Initial residual = 0.0669467, Final residual = 0.00500439, No Iterations 6
ExecutionTime = 0.3 s  ClockTime = 0 s

scalarTransport execute: age
smoothSolver:  Solving for age, Initial residual = 0.031435, Final residual = 0.0030139, No Iterations 12

Time = 20

smoothSolver:  Solving for Ux, Initial residual = 0.0161014, Final residual = 0.00156918, No Iterations 5
smoothSolver:  Solving for Uy, Initial residual = 0.0148634, Final residual = 0.00141047, No Iterations 5
GAMG:  Solving for p, Initial residual = 0.0178171, Final residual = 0.000850482, No Iterations 2
time step continuity errors : sum local = 0.00243869, global = 0.000509919, cumulative = 0.00495144
smoothSolver:  Solving for omega, Initial residual = 0.00793611, Final residual = 0.000779249, No Iterations 5
smoothSolver:  Solving for k, Initial residual = 0.0629915, Final residual = 0.0047269, No Iterations 6
ExecutionTime = 0.31 s  ClockTime = 0 s

scalarTransport execute: age
smoothSolver:  Solving for age, Initial residual = 0.0279843, Final residual = 0.00266836, No Iterations 12

Time = 21

smoothSolver:  Solving for Ux, Initial residual = 0.0154164, Final residual = 0.00150362, No Iterations 5
smoothSolver:  Solving for Uy, Initial residual = 0.0144126, Final residual = 0.00136741, No Iterations 5
GAMG:  Solving for p, Initial residual = 0.0170493, Final residual = 0.000805567, No Iterations 2
time step continuity errors : sum local = 0.00228043, global = 0.00046609, cumulative = 0.00541753
smoothSolver:  Solving for omega, Initial residual = 0.0072315, Final residual = 0.0007095, No Iterations 5
smoothSolver:  Solving for k, Initial residual = 0.0593955, Final residual = 0.00447112, No Iterations 6
ExecutionTime = 0.33 s  ClockTime = 0 s

scalarTransport execute: age
smoothSolver:  Solving for age, Initial residual = 0.0249728, Final residual = 0.00235977, No Iterations 12

Time = 22

smoothSolver:  Solving for Ux, Initial residual = 0.0148188, Final residual = 0.00144821, No Iterations 5
smoothSolver:  Solving for Uy, Initial residual = 0.0139251, Final residual = 0.00131853, No Iterations 5
GAMG:  Solving for p, Initial residual = 0.0167437, Final residual = 0.000783818, No Iterations 2
time step continuity errors : sum local = 0.002193, global = 0.000434274, cumulative = 0.0058518
smoothSolver:  Solving for omega, Initial residual = 0.00662123, Final residual = 0.0006485, No Iterations 5
smoothSolver:  Solving for k, Initial residual = 0.056097, Final residual = 0.00423369, No Iterations 6
ExecutionTime = 0.34 s  ClockTime = 0 s

scalarTransport execute: age
smoothSolver:  Solving for age, Initial residual = 0.022339, Final residual = 0.00206245, No Iterations 12

Time = 23

smoothSolver:  Solving for Ux, Initial residual = 0.0142903, Final residual = 0.00140039, No Iterations 5
smoothSolver:  Solving for Uy, Initial residual = 0.0133771, Final residual = 0.00126222, No Iterations 5
GAMG:  Solving for p, Initial residual = 0.0166144, Final residual = 0.000758493, No Iterations 2
time step continuity errors : sum local = 0.00210242, global = 0.000409001, cumulative = 0.0062608
smoothSolver:  Solving for omega, Initial residual = 0.00609618, Final residual = 0.000594622, No Iterations 5
smoothSolver:  Solving for k, Initial residual = 0.0530544, Final residual = 0.00401264, No Iterations 6
ExecutionTime = 0.35 s  ClockTime = 0 s

scalarTransport execute: age
smoothSolver:  Solving for age, Initial residual = 0.0201237, Final residual = 0.0017929, No Iterations 12

Time = 24

smoothSolver:  Solving for Ux, Initial residual = 0.0139042, Final residual = 0.00136202, No Iterations 5
smoothSolver:  Solving for Uy, Initial residual = 0.0128252, Final residual = 0.00120275, No Iterations 5
GAMG:  Solving for p, Initial residual = 0.0164704, Final residual = 0.000743047, No Iterations 2
time step continuity errors : sum local = 0.00203822, global = 0.000376727, cumulative = 0.00663753
smoothSolver:  Solving for omega, Initial residual = 0.00563122, Final residual = 0.000546773, No Iterations 5
smoothSolver:  Solving for k, Initial residual = 0.0502261, Final residual = 0.00380591, No Iterations 6
ExecutionTime = 0.37 s  ClockTime = 0 s

scalarTransport execute: age
smoothSolver:  Solving for age, Initial residual = 0.0182147, Final residual = 0.00154894, No Iterations 12

Time = 25

smoothSolver:  Solving for Ux, Initial residual = 0.0136202, Final residual = 0.00133158, No Iterations 5
smoothSolver:  Solving for Uy, Initial residual = 0.012258, Final residual = 0.00114205, No Iterations 5
GAMG:  Solving for p, Initial residual = 0.0162519, Final residual = 0.000746805, No Iterations 2
time step continuity errors : sum local = 0.00202723, global = 0.00034977, cumulative = 0.0069873
smoothSolver:  Solving for omega, Initial residual = 0.0052186, Final residual = 0.000504094, No Iterations 5
smoothSolver:  Solving for k, Initial residual = 0.0475903, Final residual = 0.00361213, No Iterations 6
ExecutionTime = 0.38 s  ClockTime = 0 s

scalarTransport execute: age
smoothSolver:  Solving for age, Initial residual = 0.0165266, Final residual = 0.00158039, No Iterations 11

Time = 26

smoothSolver:  Solving for Ux, Initial residual = 0.0133946, Final residual = 0.00130604, No Iterations 5
smoothSolver:  Solving for Uy, Initial residual = 0.01165, Final residual = 0.00107915, No Iterations 5
GAMG:  Solving for p, Initial residual = 0.0158287, Final residual = 0.000745275, No Iterations 2
time step continuity errors : sum local = 0.00200543, global = 0.000329679, cumulative = 0.00731698
smoothSolver:  Solving for omega, Initial residual = 0.0048495, Final residual = 0.000465784, No Iterations 5
smoothSolver:  Solving for k, Initial residual = 0.0451162, Final residual = 0.00342966, No Iterations 6
ExecutionTime = 0.39 s  ClockTime = 0 s

scalarTransport execute: age
smoothSolver:  Solving for age, Initial residual = 0.0152081, Final residual = 0.00140028, No Iterations 11

Time = 27

smoothSolver:  Solving for Ux, Initial residual = 0.0132149, Final residual = 0.0012856, No Iterations 5
smoothSolver:  Solving for Uy, Initial residual = 0.011012, Final residual = 0.00101409, No Iterations 5
GAMG:  Solving for p, Initial residual = 0.0152337, Final residual = 0.000729171, No Iterations 2
time step continuity errors : sum local = 0.00194674, global = 0.00031532, cumulative = 0.0076323
smoothSolver:  Solving for omega, Initial residual = 0.00454659, Final residual = 0.000430906, No Iterations 5
smoothSolver:  Solving for k, Initial residual = 0.0428024, Final residual = 0.00325824, No Iterations 6
ExecutionTime = 0.41 s  ClockTime = 0 s

scalarTransport execute: age
smoothSolver:  Solving for age, Initial residual = 0.0141607, Final residual = 0.00125881, No Iterations 11

Time = 28

smoothSolver:  Solving for Ux, Initial residual = 0.0130459, Final residual = 0.00126904, No Iterations 5
smoothSolver:  Solving for Uy, Initial residual = 0.01035, Final residual = 0.000948129, No Iterations 5
GAMG:  Solving for p, Initial residual = 0.0146822, Final residual = 0.000703265, No Iterations 2
time step continuity errors : sum local = 0.00186464, global = 0.000304634, cumulative = 0.00793693
smoothSolver:  Solving for omega, Initial residual = 0.00424708, Final residual = 0.00039986, No Iterations 5
smoothSolver:  Solving for k, Initial residual = 0.0406197, Final residual = 0.0030969, No Iterations 6
ExecutionTime = 0.42 s  ClockTime = 0 s

scalarTransport execute: age
smoothSolver:  Solving for age, Initial residual = 0.0133129, Final residual = 0.00115603, No Iterations 11

Time = 29

smoothSolver:  Solving for Ux, Initial residual = 0.012893, Final residual = 0.0012569, No Iterations 5
smoothSolver:  Solving for Uy, Initial residual = 0.00967855, Final residual = 0.000883554, No Iterations 5
GAMG:  Solving for p, Initial residual = 0.0140169, Final residual = 0.000679061, No Iterations 2
time step continuity errors : sum local = 0.00178739, global = 0.000296061, cumulative = 0.00823299
smoothSolver:  Solving for omega, Initial residual = 0.00397707, Final residual = 0.00037168, No Iterations 5
smoothSolver:  Solving for k, Initial residual = 0.0385741, Final residual = 0.00294526, No Iterations 6
ExecutionTime = 0.42 s  ClockTime = 0 s

scalarTransport execute: age
smoothSolver:  Solving for age, Initial residual = 0.0125872, Final residual = 0.00108666, No Iterations 11

Time = 30

smoothSolver:  Solving for Ux, Initial residual = 0.0127566, Final residual = 0.00124704, No Iterations 5
smoothSolver:  Solving for Uy, Initial residual = 0.00902981, Final residual = 0.000821443, No Iterations 5
GAMG:  Solving for p, Initial residual = 0.0135542, Final residual = 0.000675364, No Iterations 2
time step continuity errors : sum local = 0.00176552, global = 0.00029063, cumulative = 0.00852362
smoothSolver:  Solving for omega, Initial residual = 0.00372503, Final residual = 0.00034587, No Iterations 5
smoothSolver:  Solving for k, Initial residual = 0.0366483, Final residual = 0.00280281, No Iterations 6
ExecutionTime = 0.43 s  ClockTime = 0 s

scalarTransport execute: age
smoothSolver:  Solving for age, Initial residual = 0.0119591, Final residual = 0.00104676, No Iterations 11

Time = 31

smoothSolver:  Solving for Ux, Initial residual = 0.0126467, Final residual = 0.00123746, No Iterations 5
smoothSolver:  Solving for Uy, Initial residual = 0.0084542, Final residual = 0.000763424, No Iterations 5
GAMG:  Solving for p, Initial residual = 0.0133498, Final residual = 0.000692105, No Iterations 2
time step continuity errors : sum local = 0.0017979, global = 0.000289381, cumulative = 0.008813
smoothSolver:  Solving for omega, Initial residual = 0.00349472, Final residual = 0.000322046, No Iterations 5
smoothSolver:  Solving for k, Initial residual = 0.0348491, Final residual = 0.00266908, No Iterations 6
ExecutionTime = 0.45 s  ClockTime = 0 s

scalarTransport execute: age
smoothSolver:  Solving for age, Initial residual = 0.0114696, Final residual = 0.00103563, No Iterations 11

Time = 32

smoothSolver:  Solving for Ux, Initial residual = 0.0125503, Final residual = 0.00122758, No Iterations 5
smoothSolver:  Solving for Uy, Initial residual = 0.00791677, Final residual = 0.000709891, No Iterations 5
GAMG:  Solving for p, Initial residual = 0.0132422, Final residual = 0.00073907, No Iterations 2
time step continuity errors : sum local = 0.00190905, global = 0.000298086, cumulative = 0.00911109
smoothSolver:  Solving for omega, Initial residual = 0.00329475, Final residual = 0.00030005, No Iterations 5
smoothSolver:  Solving for k, Initial residual = 0.0331826, Final residual = 0.00254387, No Iterations 6
ExecutionTime = 0.46 s  ClockTime = 0 s

scalarTransport execute: age
smoothSolver:  Solving for age, Initial residual = 0.0111447, Final residual = 0.00105086, No Iterations 11

Time = 33

smoothSolver:  Solving for Ux, Initial residual = 0.012513, Final residual = 0.0012164, No Iterations 5
smoothSolver:  Solving for Uy, Initial residual = 0.0074278, Final residual = 0.000660623, No Iterations 5
GAMG:  Solving for p, Initial residual = 0.0131823, Final residual = 0.000792916, No Iterations 2
time step continuity errors : sum local = 0.00204009, global = 0.000310567, cumulative = 0.00942166
smoothSolver:  Solving for omega, Initial residual = 0.00310505, Final residual = 0.000279455, No Iterations 5
smoothSolver:  Solving for k, Initial residual = 0.0316299, Final residual = 0.00242649, No Iterations 6
ExecutionTime = 0.47 s  ClockTime = 0 s

scalarTransport execute: age
smoothSolver:  Solving for age, Initial residual = 0.010925, Final residual = 0.00108904, No Iterations 11

Time = 34

smoothSolver:  Solving for Ux, Initial residual = 0.012493, Final residual = 0.00120569, No Iterations 5
smoothSolver:  Solving for Uy, Initial residual = 0.00698557, Final residual = 0.000616932, No Iterations 5
GAMG:  Solving for p, Initial residual = 0.013217, Final residual = 0.000850717, No Iterations 2
time step continuity errors : sum local = 0.00218391, global = 0.000326123, cumulative = 0.00974778
smoothSolver:  Solving for omega, Initial residual = 0.00292752, Final residual = 0.000261053, No Iterations 5
smoothSolver:  Solving for k, Initial residual = 0.0301831, Final residual = 0.00231614, No Iterations 6
ExecutionTime = 0.48 s  ClockTime = 0 s

scalarTransport execute: age
smoothSolver:  Solving for age, Initial residual = 0.0107653, Final residual = 0.00097989, No Iterations 12

Time = 35

smoothSolver:  Solving for Ux, Initial residual = 0.0124806, Final residual = 0.00119709, No Iterations 5
smoothSolver:  Solving for Uy, Initial residual = 0.00661379, Final residual = 0.000579486, No Iterations 5
GAMG:  Solving for p, Initial residual = 0.0132387, Final residual = 0.000899358, No Iterations 2
time step continuity errors : sum local = 0.00230726, global = 0.000341074, cumulative = 0.0100889
smoothSolver:  Solving for omega, Initial residual = 0.00277856, Final residual = 0.000244712, No Iterations 5
smoothSolver:  Solving for k, Initial residual = 0.0288394, Final residual = 0.00221236, No Iterations 6
ExecutionTime = 0.5 s  ClockTime = 0 s

scalarTransport execute: age
smoothSolver:  Solving for age, Initial residual = 0.0107082, Final residual = 0.00102257, No Iterations 12

Time = 36

smoothSolver:  Solving for Ux, Initial residual = 0.0124842, Final residual = 0.00119038, No Iterations 5
smoothSolver:  Solving for Uy, Initial residual = 0.00631711, Final residual = 0.000549359, No Iterations 5
GAMG:  Solving for p, Initial residual = 0.0132111, Final residual = 0.00093861, No Iterations 2
time step continuity errors : sum local = 0.00241128, global = 0.0003531, cumulative = 0.010442
smoothSolver:  Solving for omega, Initial residual = 0.00264939, Final residual = 0.000230025, No Iterations 5
smoothSolver:  Solving for k, Initial residual = 0.0275894, Final residual = 0.00211467, No Iterations 6
ExecutionTime = 0.51 s  ClockTime = 0 s

scalarTransport execute: age
smoothSolver:  Solving for age, Initial residual = 0.0106486, Final residual = 0.00104642, No Iterations 12

Time = 37

smoothSolver:  Solving for Ux, Initial residual = 0.0125136, Final residual = 0.00118625, No Iterations 5
smoothSolver:  Solving for Uy, Initial residual = 0.00610506, Final residual = 0.000526941, No Iterations 5
GAMG:  Solving for p, Initial residual = 0.0132793, Final residual = 0.000972431, No Iterations 2
time step continuity errors : sum local = 0.00250351, global = 0.00036063, cumulative = 0.0108026
smoothSolver:  Solving for omega, Initial residual = 0.00252879, Final residual = 0.000216674, No Iterations 5
smoothSolver:  Solving for k, Initial residual = 0.0264276, Final residual = 0.00202332, No Iterations 6
ExecutionTime = 0.52 s  ClockTime = 0 s

scalarTransport execute: age
smoothSolver:  Solving for age, Initial residual = 0.0106057, Final residual = 0.00104244, No Iterations 12

Time = 38

smoothSolver:  Solving for Ux, Initial residual = 0.0125432, Final residual = 0.00118494, No Iterations 5
smoothSolver:  Solving for Uy, Initial residual = 0.00597173, Final residual = 0.000513199, No Iterations 5
GAMG:  Solving for p, Initial residual = 0.013314, Final residual = 0.00100505, No Iterations 2
time step continuity errors : sum local = 0.002596, global = 0.000364189, cumulative = 0.0111668
smoothSolver:  Solving for omega, Initial residual = 0.00242897, Final residual = 0.000204522, No Iterations 5
smoothSolver:  Solving for k, Initial residual = 0.0253408, Final residual = 0.00193763, No Iterations 6
ExecutionTime = 0.54 s  ClockTime = 0 s

scalarTransport execute: age
smoothSolver:  Solving for age, Initial residual = 0.0105709, Final residual = 0.00104514, No Iterations 12

Time = 39

smoothSolver:  Solving for Ux, Initial residual = 0.0125737, Final residual = 0.00118754, No Iterations 5
smoothSolver:  Solving for Uy, Initial residual = 0.00592046, Final residual = 0.000509747, No Iterations 5
GAMG:  Solving for p, Initial residual = 0.0133435, Final residual = 0.00103814, No Iterations 2
time step continuity errors : sum local = 0.00269217, global = 0.00036392, cumulative = 0.0115307
smoothSolver:  Solving for omega, Initial residual = 0.00234013, Final residual = 0.000193288, No Iterations 5
smoothSolver:  Solving for k, Initial residual = 0.0243219, Final residual = 0.0018574, No Iterations 6
ExecutionTime = 0.55 s  ClockTime = 0 s

scalarTransport execute: age
smoothSolver:  Solving for age, Initial residual = 0.0106461, Final residual = 0.00105926, No Iterations 12

Time = 40

smoothSolver:  Solving for Ux, Initial residual = 0.0126078, Final residual = 0.00119314, No Iterations 5
smoothSolver:  Solving for Uy, Initial residual = 0.00591878, Final residual = 0.000514512, No Iterations 5
GAMG:  Solving for p, Initial residual = 0.0134882, Final residual = 0.00106877, No Iterations 2
time step continuity errors : sum local = 0.00278376, global = 0.000360704, cumulative = 0.0118914
smoothSolver:  Solving for omega, Initial residual = 0.00226417, Final residual = 0.000183123, No Iterations 5
smoothSolver:  Solving for k, Initial residual = 0.0233562, Final residual = 0.00178186, No Iterations 6
ExecutionTime = 0.56 s  ClockTime = 0 s

scalarTransport execute: age
smoothSolver:  Solving for age, Initial residual = 0.0109201, Final residual = 0.00108904, No Iterations 12

Time = 41

smoothSolver:  Solving for Ux, Initial residual = 0.0126542, Final residual = 0.00120268, No Iterations 5
smoothSolver:  Solving for Uy, Initial residual = 0.00596823, Final residual = 0.000526092, No Iterations 5
GAMG:  Solving for p, Initial residual = 0.0137669, Final residual = 0.00109238, No Iterations 2
time step continuity errors : sum local = 0.00286088, global = 0.000355362, cumulative = 0.0122468
smoothSolver:  Solving for omega, Initial residual = 0.0022053, Final residual = 0.000174059, No Iterations 5
smoothSolver:  Solving for k, Initial residual = 0.0224586, Final residual = 0.00171079, No Iterations 6
ExecutionTime = 0.57 s  ClockTime = 0 s

scalarTransport execute: age
smoothSolver:  Solving for age, Initial residual = 0.0112608, Final residual = 0.000981416, No Iterations 13

Time = 42

smoothSolver:  Solving for Ux, Initial residual = 0.0127174, Final residual = 0.00121644, No Iterations 5
smoothSolver:  Solving for Uy, Initial residual = 0.00606733, Final residual = 0.000544128, No Iterations 5
GAMG:  Solving for p, Initial residual = 0.014611, Final residual = 0.0010944, No Iterations 2
time step continuity errors : sum local = 0.00289509, global = 0.000347986, cumulative = 0.0125947
smoothSolver:  Solving for omega, Initial residual = 0.00217494, Final residual = 0.000166103, No Iterations 5
smoothSolver:  Solving for k, Initial residual = 0.0216368, Final residual = 0.0016437, No Iterations 6
ExecutionTime = 0.59 s  ClockTime = 0 s

scalarTransport execute: age
smoothSolver:  Solving for age, Initial residual = 0.0117193, Final residual = 0.00108327, No Iterations 15

Time = 43

smoothSolver:  Solving for Ux, Initial residual = 0.0128417, Final residual = 0.00123407, No Iterations 5
smoothSolver:  Solving for Uy, Initial residual = 0.00617559, Final residual = 0.000568959, No Iterations 5
GAMG:  Solving for p, Initial residual = 0.0168714, Final residual = 0.00104664, No Iterations 2
time step continuity errors : sum local = 0.00287264, global = 0.000340822, cumulative = 0.0129356
smoothSolver:  Solving for omega, Initial residual = 0.00214375, Final residual = 0.000158919, No Iterations 5
smoothSolver:  Solving for k, Initial residual = 0.0208682, Final residual = 0.00158021, No Iterations 6
ExecutionTime = 0.6 s  ClockTime = 0 s

scalarTransport execute: age
smoothSolver:  Solving for age, Initial residual = 0.0149295, Final residual = 0.00132613, No Iterations 13

Time = 44

smoothSolver:  Solving for Ux, Initial residual = 0.013077, Final residual = 0.00125485, No Iterations 5
smoothSolver:  Solving for Uy, Initial residual = 0.00639328, Final residual = 0.000595753, No Iterations 5
GAMG:  Solving for p, Initial residual = 0.0165698, Final residual = 0.00102239, No Iterations 2
time step continuity errors : sum local = 0.00273829, global = 0.000338908, cumulative = 0.0132745
smoothSolver:  Solving for omega, Initial residual = 0.00210487, Final residual = 0.000151165, No Iterations 5
smoothSolver:  Solving for k, Initial residual = 0.0201382, Final residual = 0.00152046, No Iterations 6
ExecutionTime = 0.61 s  ClockTime = 0 s

scalarTransport execute: age
smoothSolver:  Solving for age, Initial residual = 0.0145783, Final residual = 0.00144465, No Iterations 12

Time = 45

smoothSolver:  Solving for Ux, Initial residual = 0.0133157, Final residual = 0.00127371, No Iterations 5
smoothSolver:  Solving for Uy, Initial residual = 0.00662266, Final residual = 0.000622568, No Iterations 5
GAMG:  Solving for p, Initial residual = 0.0169848, Final residual = 0.00111055, No Iterations 2
time step continuity errors : sum local = 0.00293171, global = 0.000343639, cumulative = 0.0136181
smoothSolver:  Solving for omega, Initial residual = 0.0020185, Final residual = 0.000142928, No Iterations 5
smoothSolver:  Solving for k, Initial residual = 0.0194215, Final residual = 0.00146399, No Iterations 6
ExecutionTime = 0.63 s  ClockTime = 0 s

scalarTransport execute: age
smoothSolver:  Solving for age, Initial residual = 0.0153846, Final residual = 0.00144206, No Iterations 12

Time = 46

smoothSolver:  Solving for Ux, Initial residual = 0.0135317, Final residual = 0.00129246, No Iterations 5
smoothSolver:  Solving for Uy, Initial residual = 0.00693952, Final residual = 0.000651719, No Iterations 5
GAMG:  Solving for p, Initial residual = 0.0167876, Final residual = 0.00114175, No Iterations 2
time step continuity errors : sum local = 0.00299233, global = 0.00034444, cumulative = 0.0139626
smoothSolver:  Solving for omega, Initial residual = 0.00194351, Final residual = 0.000135636, No Iterations 5
smoothSolver:  Solving for k, Initial residual = 0.018742, Final residual = 0.00141015, No Iterations 6
ExecutionTime = 0.64 s  ClockTime = 0 s

scalarTransport execute: age
smoothSolver:  Solving for age, Initial residual = 0.015858, Final residual = 0.00147459, No Iterations 12

Time = 47

smoothSolver:  Solving for Ux, Initial residual = 0.0137443, Final residual = 0.00131581, No Iterations 5
smoothSolver:  Solving for Uy, Initial residual = 0.00728407, Final residual = 0.000683889, No Iterations 5
GAMG:  Solving for p, Initial residual = 0.0163883, Final residual = 0.00122667, No Iterations 2
time step continuity errors : sum local = 0.00320524, global = 0.000345796, cumulative = 0.0143083
smoothSolver:  Solving for omega, Initial residual = 0.00186953, Final residual = 0.000129631, No Iterations 5
smoothSolver:  Solving for k, Initial residual = 0.0180994, Final residual = 0.00135851, No Iterations 6
ExecutionTime = 0.65 s  ClockTime = 0 s

scalarTransport execute: age
smoothSolver:  Solving for age, Initial residual = 0.017072, Final residual = 0.00158431, No Iterations 12

Time = 48

smoothSolver:  Solving for Ux, Initial residual = 0.0139305, Final residual = 0.0013374, No Iterations 5
smoothSolver:  Solving for Uy, Initial residual = 0.00755386, Final residual = 0.000714196, No Iterations 5
GAMG:  Solving for p, Initial residual = 0.0162151, Final residual = 0.00128157, No Iterations 2
time step continuity errors : sum local = 0.00332094, global = 0.000346266, cumulative = 0.0146546
smoothSolver:  Solving for omega, Initial residual = 0.00180295, Final residual = 0.000124132, No Iterations 5
smoothSolver:  Solving for k, Initial residual = 0.0174921, Final residual = 0.00130952, No Iterations 6
ExecutionTime = 0.66 s  ClockTime = 0 s

scalarTransport execute: age
smoothSolver:  Solving for age, Initial residual = 0.0181773, Final residual = 0.00166925, No Iterations 12

Time = 49

smoothSolver:  Solving for Ux, Initial residual = 0.0140398, Final residual = 0.00135327, No Iterations 5
smoothSolver:  Solving for Uy, Initial residual = 0.00774134, Final residual = 0.00074197, No Iterations 5
GAMG:  Solving for p, Initial residual = 0.0155005, Final residual = 0.00125885, No Iterations 2
time step continuity errors : sum local = 0.00322927, global = 0.000343763, cumulative = 0.0149984
smoothSolver:  Solving for omega, Initial residual = 0.00172173, Final residual = 0.000118735, No Iterations 5
smoothSolver:  Solving for k, Initial residual = 0.0169256, Final residual = 0.00126351, No Iterations 6
ExecutionTime = 0.68 s  ClockTime = 0 s

scalarTransport execute: age
smoothSolver:  Solving for age, Initial residual = 0.0197672, Final residual = 0.00174077, No Iterations 12

Time = 50

smoothSolver:  Solving for Ux, Initial residual = 0.0140088, Final residual = 0.00136624, No Iterations 5
smoothSolver:  Solving for Uy, Initial residual = 0.00788055, Final residual = 0.000766921, No Iterations 5
GAMG:  Solving for p, Initial residual = 0.0146847, Final residual = 0.00126176, No Iterations 2
time step continuity errors : sum local = 0.00322003, global = 0.000345247, cumulative = 0.0153436
smoothSolver:  Solving for omega, Initial residual = 0.00167114, Final residual = 0.000113866, No Iterations 5
smoothSolver:  Solving for k, Initial residual = 0.0163868, Final residual = 0.00122007, No Iterations 6
ExecutionTime = 0.69 s  ClockTime = 0 s

scalarTransport execute: age
smoothSolver:  Solving for age, Initial residual = 0.0208516, Final residual = 0.0018332, No Iterations 12

Time = 51

smoothSolver:  Solving for Ux, Initial residual = 0.0139215, Final residual = 0.00137317, No Iterations 5
smoothSolver:  Solving for Uy, Initial residual = 0.0079816, Final residual = 0.000787352, No Iterations 5
GAMG:  Solving for p, Initial residual = 0.0140245, Final residual = 0.00123107, No Iterations 2
time step continuity errors : sum local = 0.00313953, global = 0.000342109, cumulative = 0.0156857
smoothSolver:  Solving for omega, Initial residual = 0.00163992, Final residual = 0.00010954, No Iterations 5
smoothSolver:  Solving for k, Initial residual = 0.0158641, Final residual = 0.00117903, No Iterations 6
ExecutionTime = 0.7 s  ClockTime = 0 s

scalarTransport execute: age
smoothSolver:  Solving for age, Initial residual = 0.0219258, Final residual = 0.00187027, No Iterations 12

Time = 52

smoothSolver:  Solving for Ux, Initial residual = 0.0137982, Final residual = 0.00137384, No Iterations 5
smoothSolver:  Solving for Uy, Initial residual = 0.00807049, Final residual = 0.000803939, No Iterations 5
GAMG:  Solving for p, Initial residual = 0.0135111, Final residual = 0.00117345, No Iterations 2
time step continuity errors : sum local = 0.00298405, global = 0.000334622, cumulative = 0.0160204
smoothSolver:  Solving for omega, Initial residual = 0.001572, Final residual = 0.000105539, No Iterations 5
smoothSolver:  Solving for k, Initial residual = 0.0153715, Final residual = 0.00114025, No Iterations 6
ExecutionTime = 0.72 s  ClockTime = 0 s

scalarTransport execute: age
smoothSolver:  Solving for age, Initial residual = 0.023188, Final residual = 0.00224997, No Iterations 11

Time = 53

smoothSolver:  Solving for Ux, Initial residual = 0.0136392, Final residual = 0.000890516, No Iterations 6
smoothSolver:  Solving for Uy, Initial residual = 0.00811769, Final residual = 0.000533505, No Iterations 6
GAMG:  Solving for p, Initial residual = 0.0130436, Final residual = 0.00111668, No Iterations 2
time step continuity errors : sum local = 0.00283728, global = 0.000322153, cumulative = 0.0163425
smoothSolver:  Solving for omega, Initial residual = 0.0015239, Final residual = 0.000102074, No Iterations 5
smoothSolver:  Solving for k, Initial residual = 0.0149119, Final residual = 0.00110337, No Iterations 6
ExecutionTime = 0.73 s  ClockTime = 0 s

scalarTransport execute: age
smoothSolver:  Solving for age, Initial residual = 0.0241507, Final residual = 0.00226594, No Iterations 11

Time = 54

smoothSolver:  Solving for Ux, Initial residual = 0.0135028, Final residual = 0.000882258, No Iterations 6
smoothSolver:  Solving for Uy, Initial residual = 0.00811116, Final residual = 0.000539607, No Iterations 6
GAMG:  Solving for p, Initial residual = 0.0127569, Final residual = 0.00102822, No Iterations 2
time step continuity errors : sum local = 0.00261672, global = 0.000304042, cumulative = 0.0166466
smoothSolver:  Solving for omega, Initial residual = 0.00147505, Final residual = 9.8577e-05, No Iterations 5
smoothSolver:  Solving for k, Initial residual = 0.0144648, Final residual = 0.00106829, No Iterations 6
ExecutionTime = 0.74 s  ClockTime = 0 s

scalarTransport execute: age
smoothSolver:  Solving for age, Initial residual = 0.0254568, Final residual = 0.00218906, No Iterations 11

Time = 55

smoothSolver:  Solving for Ux, Initial residual = 0.0133238, Final residual = 0.000871121, No Iterations 6
smoothSolver:  Solving for Uy, Initial residual = 0.00810788, Final residual = 0.000545182, No Iterations 6
GAMG:  Solving for p, Initial residual = 0.0124424, Final residual = 0.00093722, No Iterations 2
time step continuity errors : sum local = 0.00238334, global = 0.000279776, cumulative = 0.0169263
smoothSolver:  Solving for omega, Initial residual = 0.00143571, Final residual = 9.5323e-05, No Iterations 5
smoothSolver:  Solving for k, Initial residual = 0.0140306, Final residual = 0.00103473, No Iterations 6
ExecutionTime = 0.77 s  ClockTime = 0 s

scalarTransport execute: age
smoothSolver:  Solving for age, Initial residual = 0.0262556, Final residual = 0.00226566, No Iterations 11

Time = 56

smoothSolver:  Solving for Ux, Initial residual = 0.0132469, Final residual = 0.00132087, No Iterations 5
smoothSolver:  Solving for Uy, Initial residual = 0.0080862, Final residual = 0.000550456, No Iterations 6
GAMG:  Solving for p, Initial residual = 0.0124908, Final residual = 0.000878406, No Iterations 2
time step continuity errors : sum local = 0.00222645, global = 0.000251768, cumulative = 0.0171781
smoothSolver:  Solving for omega, Initial residual = 0.00139237, Final residual = 9.23492e-05, No Iterations 5
smoothSolver:  Solving for k, Initial residual = 0.0136032, Final residual = 0.00100259, No Iterations 6
ExecutionTime = 0.78 s  ClockTime = 1 s

scalarTransport execute: age
smoothSolver:  Solving for age, Initial residual = 0.0260671, Final residual = 0.0023927, No Iterations 11

Time = 57

smoothSolver:  Solving for Ux, Initial residual = 0.0132429, Final residual = 0.00131904, No Iterations 5
smoothSolver:  Solving for Uy, Initial residual = 0.00802332, Final residual = 0.000551468, No Iterations 6
GAMG:  Solving for p, Initial residual = 0.0126562, Final residual = 0.000859416, No Iterations 2
time step continuity errors : sum local = 0.00216925, global = 0.000223389, cumulative = 0.0174015
smoothSolver:  Solving for omega, Initial residual = 0.00134404, Final residual = 8.96044e-05, No Iterations 5
smoothSolver:  Solving for k, Initial residual = 0.0131845, Final residual = 0.000971737, No Iterations 6
ExecutionTime = 0.78 s  ClockTime = 1 s

scalarTransport execute: age
smoothSolver:  Solving for age, Initial residual = 0.0247427, Final residual = 0.00227361, No Iterations 11

Time = 58

smoothSolver:  Solving for Ux, Initial residual = 0.0132356, Final residual = 0.00131801, No Iterations 5
smoothSolver:  Solving for Uy, Initial residual = 0.00797474, Final residual = 0.000552587, No Iterations 6
GAMG:  Solving for p, Initial residual = 0.0126346, Final residual = 0.000841747, No Iterations 2
time step continuity errors : sum local = 0.00210504, global = 0.000194726, cumulative = 0.0175962
smoothSolver:  Solving for omega, Initial residual = 0.00130054, Final residual = 8.7143e-05, No Iterations 5
smoothSolver:  Solving for k, Initial residual = 0.0127777, Final residual = 0.00094212, No Iterations 6
ExecutionTime = 0.79 s  ClockTime = 1 s

scalarTransport execute: age
smoothSolver:  Solving for age, Initial residual = 0.0225411, Final residual = 0.00208631, No Iterations 11

Time = 59

smoothSolver:  Solving for Ux, Initial residual = 0.0132314, Final residual = 0.00132023, No Iterations 5
smoothSolver:  Solving for Uy, Initial residual = 0.00794211, Final residual = 0.00055465, No Iterations 6
GAMG:  Solving for p, Initial residual = 0.0126287, Final residual = 0.000810416, No Iterations 2
time step continuity errors : sum local = 0.00201098, global = 0.000167001, cumulative = 0.0177632
smoothSolver:  Solving for omega, Initial residual = 0.00125985, Final residual = 8.49501e-05, No Iterations 5
smoothSolver:  Solving for k, Initial residual = 0.0123871, Final residual = 0.000913886, No Iterations 6
ExecutionTime = 0.81 s  ClockTime = 1 s

scalarTransport execute: age
smoothSolver:  Solving for age, Initial residual = 0.0202694, Final residual = 0.00193705, No Iterations 11

Time = 60

smoothSolver:  Solving for Ux, Initial residual = 0.0132218, Final residual = 0.000859756, No Iterations 6
smoothSolver:  Solving for Uy, Initial residual = 0.00793832, Final residual = 0.000557655, No Iterations 6
GAMG:  Solving for p, Initial residual = 0.0127415, Final residual = 0.000796658, No Iterations 2
time step continuity errors : sum local = 0.00196111, global = 0.000140999, cumulative = 0.0179042
smoothSolver:  Solving for omega, Initial residual = 0.0012325, Final residual = 8.31708e-05, No Iterations 5
smoothSolver:  Solving for k, Initial residual = 0.0120249, Final residual = 0.000886993, No Iterations 6
ExecutionTime = 0.82 s  ClockTime = 1 s

scalarTransport execute: age
smoothSolver:  Solving for age, Initial residual = 0.0185007, Final residual = 0.00169881, No Iterations 12

Time = 61

smoothSolver:  Solving for Ux, Initial residual = 0.0130866, Final residual = 0.000851881, No Iterations 6
smoothSolver:  Solving for Uy, Initial residual = 0.00801304, Final residual = 0.000566158, No Iterations 6
GAMG:  Solving for p, Initial residual = 0.0128166, Final residual = 0.000781944, No Iterations 2
time step continuity errors : sum local = 0.00191026, global = 0.000118279, cumulative = 0.0180225
smoothSolver:  Solving for omega, Initial residual = 0.00120914, Final residual = 8.1471e-05, No Iterations 5
smoothSolver:  Solving for k, Initial residual = 0.0116951, Final residual = 0.00086152, No Iterations 6
ExecutionTime = 0.83 s  ClockTime = 1 s

scalarTransport execute: age
smoothSolver:  Solving for age, Initial residual = 0.0173567, Final residual = 0.00168951, No Iterations 12

Time = 62

smoothSolver:  Solving for Ux, Initial residual = 0.0129181, Final residual = 0.000841827, No Iterations 6
smoothSolver:  Solving for Uy, Initial residual = 0.00810613, Final residual = 0.000573026, No Iterations 6
GAMG:  Solving for p, Initial residual = 0.0129362, Final residual = 0.000782854, No Iterations 2
time step continuity errors : sum local = 0.0018966, global = 0.000100354, cumulative = 0.0181228
smoothSolver:  Solving for omega, Initial residual = 0.00118711, Final residual = 7.97183e-05, No Iterations 5
smoothSolver:  Solving for k, Initial residual = 0.0113929, Final residual = 0.0008371, No Iterations 6
ExecutionTime = 0.85 s  ClockTime = 1 s

scalarTransport execute: age
smoothSolver:  Solving for age, Initial residual = 0.0168227, Final residual = 0.00147408, No Iterations 13

Time = 63

smoothSolver:  Solving for Ux, Initial residual = 0.0127295, Final residual = 0.000829876, No Iterations 6
smoothSolver:  Solving for Uy, Initial residual = 0.00817338, Final residual = 0.000576158, No Iterations 6
GAMG:  Solving for p, Initial residual = 0.0130219, Final residual = 0.000795759, No Iterations 2
time step continuity errors : sum local = 0.00191245, global = 8.78404e-05, cumulative = 0.0182107
smoothSolver:  Solving for omega, Initial residual = 0.00116293, Final residual = 7.77359e-05, No Iterations 5
smoothSolver:  Solving for k, Initial residual = 0.0111065, Final residual = 0.000813447, No Iterations 6
ExecutionTime = 0.86 s  ClockTime = 1 s

scalarTransport execute: age
smoothSolver:  Solving for age, Initial residual = 0.0167292, Final residual = 0.00152436, No Iterations 13

Time = 64

smoothSolver:  Solving for Ux, Initial residual = 0.0125205, Final residual = 0.00081579, No Iterations 6
smoothSolver:  Solving for Uy, Initial residual = 0.00820115, Final residual = 0.000575849, No Iterations 6
GAMG:  Solving for p, Initial residual = 0.0129326, Final residual = 0.000811742, No Iterations 2
time step continuity errors : sum local = 0.00193396, global = 8.03887e-05, cumulative = 0.0182911
smoothSolver:  Solving for omega, Initial residual = 0.00114016, Final residual = 7.55533e-05, No Iterations 5
smoothSolver:  Solving for k, Initial residual = 0.0108268, Final residual = 0.000790401, No Iterations 6
ExecutionTime = 0.87 s  ClockTime = 1 s

scalarTransport execute: age
smoothSolver:  Solving for age, Initial residual = 0.0166541, Final residual = 0.00161038, No Iterations 13

Time = 65

smoothSolver:  Solving for Ux, Initial residual = 0.0122818, Final residual = 0.000799374, No Iterations 6
smoothSolver:  Solving for Uy, Initial residual = 0.00818919, Final residual = 0.000572472, No Iterations 6
GAMG:  Solving for p, Initial residual = 0.0127726, Final residual = 0.000836662, No Iterations 2
time step continuity errors : sum local = 0.0019788, global = 9.59573e-05, cumulative = 0.018387
smoothSolver:  Solving for omega, Initial residual = 0.00110965, Final residual = 7.30788e-05, No Iterations 5
smoothSolver:  Solving for k, Initial residual = 0.0105522, Final residual = 0.00076781, No Iterations 6
ExecutionTime = 0.89 s  ClockTime = 1 s

scalarTransport execute: age
smoothSolver:  Solving for age, Initial residual = 0.0164516, Final residual = 0.00145014, No Iterations 14

Time = 66

smoothSolver:  Solving for Ux, Initial residual = 0.0119801, Final residual = 0.000777929, No Iterations 6
smoothSolver:  Solving for Uy, Initial residual = 0.00814226, Final residual = 0.000566356, No Iterations 6
GAMG:  Solving for p, Initial residual = 0.0123115, Final residual = 0.000845439, No Iterations 2
time step continuity errors : sum local = 0.00198417, global = 9.75607e-05, cumulative = 0.0184846
smoothSolver:  Solving for omega, Initial residual = 0.00109117, Final residual = 7.03316e-05, No Iterations 5
smoothSolver:  Solving for k, Initial residual = 0.0102757, Final residual = 0.00074573, No Iterations 6
ExecutionTime = 0.9 s  ClockTime = 1 s

scalarTransport execute: age
smoothSolver:  Solving for age, Initial residual = 0.0162943, Final residual = 0.00148715, No Iterations 14

Time = 67

smoothSolver:  Solving for Ux, Initial residual = 0.0117105, Final residual = 0.00117017, No Iterations 5
smoothSolver:  Solving for Uy, Initial residual = 0.00805982, Final residual = 0.000557313, No Iterations 6
GAMG:  Solving for p, Initial residual = 0.0116603, Final residual = 0.000844863, No Iterations 2
time step continuity errors : sum local = 0.0019486, global = 0.0001041, cumulative = 0.0185887
smoothSolver:  Solving for omega, Initial residual = 0.00105736, Final residual = 6.76145e-05, No Iterations 5
smoothSolver:  Solving for k, Initial residual = 0.0100066, Final residual = 0.000724214, No Iterations 6
ExecutionTime = 0.91 s  ClockTime = 1 s

scalarTransport execute: age
smoothSolver:  Solving for age, Initial residual = 0.0160779, Final residual = 0.001517, No Iterations 14

Time = 68

smoothSolver:  Solving for Ux, Initial residual = 0.0114737, Final residual = 0.00114507, No Iterations 5
smoothSolver:  Solving for Uy, Initial residual = 0.0079016, Final residual = 0.000543665, No Iterations 6
GAMG:  Solving for p, Initial residual = 0.0117023, Final residual = 0.00086112, No Iterations 2
time step continuity errors : sum local = 0.00196593, global = 0.000108247, cumulative = 0.0186969
smoothSolver:  Solving for omega, Initial residual = 0.00103242, Final residual = 6.48746e-05, No Iterations 5
smoothSolver:  Solving for k, Initial residual = 0.00973585, Final residual = 0.000703146, No Iterations 6
ExecutionTime = 0.93 s  ClockTime = 1 s

scalarTransport execute: age
smoothSolver:  Solving for age, Initial residual = 0.01596, Final residual = 0.00155319, No Iterations 14

Time = 69

smoothSolver:  Solving for Ux, Initial residual = 0.0112149, Final residual = 0.00111355, No Iterations 5
smoothSolver:  Solving for Uy, Initial residual = 0.00771467, Final residual = 0.000529102, No Iterations 6
GAMG:  Solving for p, Initial residual = 0.0116934, Final residual = 0.000867393, No Iterations 2
time step continuity errors : sum local = 0.00196474, global = 0.000110619, cumulative = 0.0188076
smoothSolver:  Solving for omega, Initial residual = 0.00100238, Final residual = 6.24611e-05, No Iterations 5
smoothSolver:  Solving for k, Initial residual = 0.00946725, Final residual = 0.000682635, No Iterations 6
ExecutionTime = 0.94 s  ClockTime = 1 s

scalarTransport execute: age
smoothSolver:  Solving for age, Initial residual = 0.0156913, Final residual = 0.00153855, No Iterations 14

Time = 70

smoothSolver:  Solving for Ux, Initial residual = 0.0109145, Final residual = 0.0010776, No Iterations 5
smoothSolver:  Solving for Uy, Initial residual = 0.0075023, Final residual = 0.00051305, No Iterations 6
GAMG:  Solving for p, Initial residual = 0.0116393, Final residual = 0.000850433, No Iterations 2
time step continuity errors : sum local = 0.00191409, global = 0.000108803, cumulative = 0.0189164
smoothSolver:  Solving for omega, Initial residual = 0.000974056, Final residual = 6.04039e-05, No Iterations 5
smoothSolver:  Solving for k, Initial residual = 0.00919851, Final residual = 0.000662636, No Iterations 6
ExecutionTime = 0.95 s  ClockTime = 1 s

scalarTransport execute: age
smoothSolver:  Solving for age, Initial residual = 0.0150542, Final residual = 0.0014792, No Iterations 14

Time = 71

smoothSolver:  Solving for Ux, Initial residual = 0.0105837, Final residual = 0.00104126, No Iterations 5
smoothSolver:  Solving for Uy, Initial residual = 0.00727993, Final residual = 0.000495522, No Iterations 6
GAMG:  Solving for p, Initial residual = 0.0114832, Final residual = 0.000819133, No Iterations 2
time step continuity errors : sum local = 0.00183174, global = 9.66938e-05, cumulative = 0.0190131
smoothSolver:  Solving for omega, Initial residual = 0.000942685, Final residual = 5.82396e-05, No Iterations 5
smoothSolver:  Solving for k, Initial residual = 0.00892736, Final residual = 0.00064305, No Iterations 6
ExecutionTime = 0.98 s  ClockTime = 1 s

scalarTransport execute: age
smoothSolver:  Solving for age, Initial residual = 0.0141724, Final residual = 0.00139119, No Iterations 14

Time = 72

smoothSolver:  Solving for Ux, Initial residual = 0.0102446, Final residual = 0.00100621, No Iterations 5
smoothSolver:  Solving for Uy, Initial residual = 0.00705914, Final residual = 0.000477644, No Iterations 6
GAMG:  Solving for p, Initial residual = 0.0112217, Final residual = 0.000798979, No Iterations 2
time step continuity errors : sum local = 0.00177756, global = 8.17787e-05, cumulative = 0.0190948
smoothSolver:  Solving for omega, Initial residual = 0.000905244, Final residual = 5.58757e-05, No Iterations 5
smoothSolver:  Solving for k, Initial residual = 0.00865928, Final residual = 0.000624015, No Iterations 6
ExecutionTime = 0.99 s  ClockTime = 1 s

scalarTransport execute: age
smoothSolver:  Solving for age, Initial residual = 0.0133708, Final residual = 0.00127128, No Iterations 14

Time = 73

smoothSolver:  Solving for Ux, Initial residual = 0.00989322, Final residual = 0.000970369, No Iterations 5
smoothSolver:  Solving for Uy, Initial residual = 0.00683493, Final residual = 0.000458871, No Iterations 6
GAMG:  Solving for p, Initial residual = 0.010865, Final residual = 0.00077568, No Iterations 2
time step continuity errors : sum local = 0.00171871, global = 6.37186e-05, cumulative = 0.0191586
smoothSolver:  Solving for omega, Initial residual = 0.000866861, Final residual = 8.6681e-05, No Iterations 4
smoothSolver:  Solving for k, Initial residual = 0.00839499, Final residual = 0.000605477, No Iterations 6
ExecutionTime = 1 s  ClockTime = 1 s

scalarTransport execute: age
smoothSolver:  Solving for age, Initial residual = 0.0126527, Final residual = 0.00114306, No Iterations 14

Time = 74

smoothSolver:  Solving for Ux, Initial residual = 0.00953432, Final residual = 0.00093382, No Iterations 5
smoothSolver:  Solving for Uy, Initial residual = 0.0065961, Final residual = 0.000438592, No Iterations 6
GAMG:  Solving for p, Initial residual = 0.010376, Final residual = 0.000758229, No Iterations 2
time step continuity errors : sum local = 0.00167457, global = 4.44207e-05, cumulative = 0.019203
smoothSolver:  Solving for omega, Initial residual = 0.000826677, Final residual = 5.16001e-05, No Iterations 5
smoothSolver:  Solving for k, Initial residual = 0.00813843, Final residual = 0.000587195, No Iterations 6
ExecutionTime = 1.01 s  ClockTime = 1 s

scalarTransport execute: age
smoothSolver:  Solving for age, Initial residual = 0.0119191, Final residual = 0.001177, No Iterations 13

Time = 75

smoothSolver:  Solving for Ux, Initial residual = 0.00916715, Final residual = 0.000895994, No Iterations 5
smoothSolver:  Solving for Uy, Initial residual = 0.00633856, Final residual = 0.000416975, No Iterations 6
GAMG:  Solving for p, Initial residual = 0.00980695, Final residual = 0.000738279, No Iterations 2
time step continuity errors : sum local = 0.00162724, global = 3.64455e-05, cumulative = 0.0192394
smoothSolver:  Solving for omega, Initial residual = 0.000784355, Final residual = 4.93092e-05, No Iterations 5
smoothSolver:  Solving for k, Initial residual = 0.00789041, Final residual = 0.000568941, No Iterations 6
ExecutionTime = 1.03 s  ClockTime = 1 s

scalarTransport execute: age
smoothSolver:  Solving for age, Initial residual = 0.0111301, Final residual = 0.00105035, No Iterations 13

Time = 76

smoothSolver:  Solving for Ux, Initial residual = 0.00877005, Final residual = 0.000855606, No Iterations 5
smoothSolver:  Solving for Uy, Initial residual = 0.00605719, Final residual = 0.000394072, No Iterations 6
GAMG:  Solving for p, Initial residual = 0.00930241, Final residual = 0.000707317, No Iterations 2
time step continuity errors : sum local = 0.00155811, global = 2.89939e-05, cumulative = 0.0192684
smoothSolver:  Solving for omega, Initial residual = 0.000749313, Final residual = 4.71161e-05, No Iterations 5
smoothSolver:  Solving for k, Initial residual = 0.00764903, Final residual = 0.000550762, No Iterations 6
ExecutionTime = 1.04 s  ClockTime = 1 s

scalarTransport execute: age
smoothSolver:  Solving for age, Initial residual = 0.0103754, Final residual = 0.000934864, No Iterations 13

Time = 77

smoothSolver:  Solving for Ux, Initial residual = 0.00835832, Final residual = 0.000814931, No Iterations 5
smoothSolver:  Solving for Uy, Initial residual = 0.00575968, Final residual = 0.000570506, No Iterations 5
GAMG:  Solving for p, Initial residual = 0.00888002, Final residual = 0.000674934, No Iterations 2
time step continuity errors : sum local = 0.00148521, global = 2.39015e-05, cumulative = 0.0192923
smoothSolver:  Solving for omega, Initial residual = 0.000714013, Final residual = 4.49213e-05, No Iterations 5
smoothSolver:  Solving for k, Initial residual = 0.00740714, Final residual = 0.000532382, No Iterations 6
ExecutionTime = 1.04 s  ClockTime = 1 s

scalarTransport execute: age
smoothSolver:  Solving for age, Initial residual = 0.00962482, Final residual = 0.000937003, No Iterations 12

Time = 78

smoothSolver:  Solving for Ux, Initial residual = 0.00791558, Final residual = 0.000771717, No Iterations 5
smoothSolver:  Solving for Uy, Initial residual = 0.00549293, Final residual = 0.000538883, No Iterations 5
GAMG:  Solving for p, Initial residual = 0.00860576, Final residual = 0.000641316, No Iterations 2
time step continuity errors : sum local = 0.00140904, global = 1.92336e-05, cumulative = 0.0193115
smoothSolver:  Solving for omega, Initial residual = 0.000685517, Final residual = 4.28779e-05, No Iterations 5
smoothSolver:  Solving for k, Initial residual = 0.00715956, Final residual = 0.000513579, No Iterations 6
ExecutionTime = 1.06 s  ClockTime = 1 s

scalarTransport execute: age
smoothSolver:  Solving for age, Initial residual = 0.00891393, Final residual = 0.000822604, No Iterations 12

Time = 79

smoothSolver:  Solving for Ux, Initial residual = 0.00750038, Final residual = 0.000729918, No Iterations 5
smoothSolver:  Solving for Uy, Initial residual = 0.00519379, Final residual = 0.000503807, No Iterations 5
GAMG:  Solving for p, Initial residual = 0.00846033, Final residual = 0.000610272, No Iterations 2
time step continuity errors : sum local = 0.00133879, global = 1.50751e-05, cumulative = 0.0193266
smoothSolver:  Solving for omega, Initial residual = 0.000659331, Final residual = 4.09452e-05, No Iterations 5
smoothSolver:  Solving for k, Initial residual = 0.00690357, Final residual = 0.000494011, No Iterations 6
ExecutionTime = 1.07 s  ClockTime = 1 s

scalarTransport execute: age
smoothSolver:  Solving for age, Initial residual = 0.00828792, Final residual = 0.00074198, No Iterations 12

Time = 80

smoothSolver:  Solving for Ux, Initial residual = 0.00710853, Final residual = 0.000689657, No Iterations 5
smoothSolver:  Solving for Uy, Initial residual = 0.00487726, Final residual = 0.000466492, No Iterations 5
GAMG:  Solving for p, Initial residual = 0.00836275, Final residual = 0.000579747, No Iterations 2
time step continuity errors : sum local = 0.00126993, global = 1.30955e-05, cumulative = 0.0193397
smoothSolver:  Solving for omega, Initial residual = 0.000634704, Final residual = 6.32307e-05, No Iterations 4
smoothSolver:  Solving for k, Initial residual = 0.00663915, Final residual = 0.000473687, No Iterations 6
ExecutionTime = 1.08 s  ClockTime = 1 s

scalarTransport execute: age
smoothSolver:  Solving for age, Initial residual = 0.00776149, Final residual = 0.000706339, No Iterations 12

Time = 81

smoothSolver:  Solving for Ux, Initial residual = 0.00672417, Final residual = 0.000649678, No Iterations 5
smoothSolver:  Solving for Uy, Initial residual = 0.00455663, Final residual = 0.000429462, No Iterations 5
GAMG:  Solving for p, Initial residual = 0.0083147, Final residual = 0.000549404, No Iterations 2
time step continuity errors : sum local = 0.00120123, global = 1.33058e-05, cumulative = 0.019353
smoothSolver:  Solving for omega, Initial residual = 0.000619236, Final residual = 6.10799e-05, No Iterations 4
smoothSolver:  Solving for k, Initial residual = 0.00636595, Final residual = 0.000452434, No Iterations 6
ExecutionTime = 1.1 s  ClockTime = 1 s

scalarTransport execute: age
smoothSolver:  Solving for age, Initial residual = 0.00728306, Final residual = 0.000690534, No Iterations 12

Time = 82

smoothSolver:  Solving for Ux, Initial residual = 0.00634954, Final residual = 0.000610249, No Iterations 5
smoothSolver:  Solving for Uy, Initial residual = 0.0042496, Final residual = 0.000394696, No Iterations 5
GAMG:  Solving for p, Initial residual = 0.00823904, Final residual = 0.000518291, No Iterations 2
time step continuity errors : sum local = 0.00113088, global = 1.58628e-05, cumulative = 0.0193689
smoothSolver:  Solving for omega, Initial residual = 0.000615196, Final residual = 5.89617e-05, No Iterations 4
smoothSolver:  Solving for k, Initial residual = 0.00608786, Final residual = 0.000430547, No Iterations 6
ExecutionTime = 1.11 s  ClockTime = 1 s

scalarTransport execute: age
smoothSolver:  Solving for age, Initial residual = 0.00689888, Final residual = 0.000681339, No Iterations 12

Time = 83

smoothSolver:  Solving for Ux, Initial residual = 0.00596878, Final residual = 0.000571176, No Iterations 5
smoothSolver:  Solving for Uy, Initial residual = 0.00397443, Final residual = 0.000363887, No Iterations 5
GAMG:  Solving for p, Initial residual = 0.00810496, Final residual = 0.000489051, No Iterations 2
time step continuity errors : sum local = 0.00106471, global = 2.17727e-05, cumulative = 0.0193907
smoothSolver:  Solving for omega, Initial residual = 0.000598344, Final residual = 5.63997e-05, No Iterations 4
smoothSolver:  Solving for k, Initial residual = 0.00580552, Final residual = 0.00040806, No Iterations 6
ExecutionTime = 1.12 s  ClockTime = 1 s

scalarTransport execute: age
smoothSolver:  Solving for age, Initial residual = 0.00662414, Final residual = 0.000607413, No Iterations 13

Time = 84

smoothSolver:  Solving for Ux, Initial residual = 0.00559462, Final residual = 0.000532356, No Iterations 5
smoothSolver:  Solving for Uy, Initial residual = 0.00374916, Final residual = 0.000338228, No Iterations 5
GAMG:  Solving for p, Initial residual = 0.0078538, Final residual = 0.000463992, No Iterations 2
time step continuity errors : sum local = 0.00100805, global = 3.16791e-05, cumulative = 0.0194223
smoothSolver:  Solving for omega, Initial residual = 0.000580065, Final residual = 5.37157e-05, No Iterations 4
smoothSolver:  Solving for k, Initial residual = 0.00552301, Final residual = 0.000385286, No Iterations 6
ExecutionTime = 1.13 s  ClockTime = 1 s

scalarTransport execute: age
smoothSolver:  Solving for age, Initial residual = 0.0063755, Final residual = 0.000613972, No Iterations 13

Time = 85

smoothSolver:  Solving for Ux, Initial residual = 0.00522447, Final residual = 0.000494255, No Iterations 5
smoothSolver:  Solving for Uy, Initial residual = 0.00357197, Final residual = 0.000318665, No Iterations 5
GAMG:  Solving for p, Initial residual = 0.00755433, Final residual = 0.000443917, No Iterations 2
time step continuity errors : sum local = 0.000961626, global = 4.68507e-05, cumulative = 0.0194692
smoothSolver:  Solving for omega, Initial residual = 0.000560564, Final residual = 5.10248e-05, No Iterations 4
smoothSolver:  Solving for k, Initial residual = 0.00524402, Final residual = 0.000362482, No Iterations 6
ExecutionTime = 1.15 s  ClockTime = 1 s

scalarTransport execute: age
smoothSolver:  Solving for age, Initial residual = 0.00615343, Final residual = 0.000542811, No Iterations 14

Time = 86

smoothSolver:  Solving for Ux, Initial residual = 0.00486481, Final residual = 0.000456371, No Iterations 5
smoothSolver:  Solving for Uy, Initial residual = 0.00345086, Final residual = 0.000305862, No Iterations 5
GAMG:  Solving for p, Initial residual = 0.00729442, Final residual = 0.000428417, No Iterations 2
time step continuity errors : sum local = 0.000924273, global = 6.75284e-05, cumulative = 0.0195367
smoothSolver:  Solving for omega, Initial residual = 0.00054218, Final residual = 4.84315e-05, No Iterations 4
smoothSolver:  Solving for k, Initial residual = 0.00497041, Final residual = 0.000339961, No Iterations 6
ExecutionTime = 1.16 s  ClockTime = 1 s

scalarTransport execute: age
smoothSolver:  Solving for age, Initial residual = 0.00598611, Final residual = 0.000541891, No Iterations 14

Time = 87

smoothSolver:  Solving for Ux, Initial residual = 0.00451325, Final residual = 0.000419385, No Iterations 5
smoothSolver:  Solving for Uy, Initial residual = 0.00337237, Final residual = 0.000297261, No Iterations 5
GAMG:  Solving for p, Initial residual = 0.00708773, Final residual = 0.000415226, No Iterations 2
time step continuity errors : sum local = 0.0008923, global = 8.50617e-05, cumulative = 0.0196218
smoothSolver:  Solving for omega, Initial residual = 0.00052754, Final residual = 4.60327e-05, No Iterations 4
smoothSolver:  Solving for k, Initial residual = 0.0047094, Final residual = 0.000318007, No Iterations 6
ExecutionTime = 1.17 s  ClockTime = 1 s

scalarTransport execute: age
smoothSolver:  Solving for age, Initial residual = 0.00581576, Final residual = 0.000537475, No Iterations 14

Time = 88

smoothSolver:  Solving for Ux, Initial residual = 0.00418, Final residual = 0.00038413, No Iterations 5
smoothSolver:  Solving for Uy, Initial residual = 0.00332009, Final residual = 0.000290814, No Iterations 5
GAMG:  Solving for p, Initial residual = 0.00698737, Final residual = 0.000406089, No Iterations 2
time step continuity errors : sum local = 0.000868762, global = 0.000102708, cumulative = 0.0197245
smoothSolver:  Solving for omega, Initial residual = 0.000511791, Final residual = 4.35825e-05, No Iterations 4
smoothSolver:  Solving for k, Initial residual = 0.004459, Final residual = 0.000296685, No Iterations 6
ExecutionTime = 1.18 s  ClockTime = 1 s

scalarTransport execute: age
smoothSolver:  Solving for age, Initial residual = 0.00562365, Final residual = 0.000530724, No Iterations 14

Time = 89

smoothSolver:  Solving for Ux, Initial residual = 0.0038642, Final residual = 0.000350311, No Iterations 5
smoothSolver:  Solving for Uy, Initial residual = 0.00326886, Final residual = 0.000283644, No Iterations 5
GAMG:  Solving for p, Initial residual = 0.00695117, Final residual = 0.000397881, No Iterations 2
time step continuity errors : sum local = 0.000848875, global = 0.000118861, cumulative = 0.0198433
smoothSolver:  Solving for omega, Initial residual = 0.000494458, Final residual = 4.13274e-05, No Iterations 4
smoothSolver:  Solving for k, Initial residual = 0.0042216, Final residual = 0.000276281, No Iterations 6
ExecutionTime = 1.2 s  ClockTime = 1 s

scalarTransport execute: age
smoothSolver:  Solving for age, Initial residual = 0.00544667, Final residual = 0.000522666, No Iterations 14

Time = 90

smoothSolver:  Solving for Ux, Initial residual = 0.00356586, Final residual = 0.000318067, No Iterations 5
smoothSolver:  Solving for Uy, Initial residual = 0.00320459, Final residual = 0.000275129, No Iterations 5
GAMG:  Solving for p, Initial residual = 0.00688009, Final residual = 0.000386625, No Iterations 2
time step continuity errors : sum local = 0.000823197, global = 0.000130245, cumulative = 0.0199736
smoothSolver:  Solving for omega, Initial residual = 0.000483526, Final residual = 3.94056e-05, No Iterations 4
smoothSolver:  Solving for k, Initial residual = 0.0039968, Final residual = 0.000256917, No Iterations 6
ExecutionTime = 1.21 s  ClockTime = 1 s

scalarTransport execute: age
smoothSolver:  Solving for age, Initial residual = 0.00527543, Final residual = 0.000516055, No Iterations 14

Time = 91

smoothSolver:  Solving for Ux, Initial residual = 0.00329571, Final residual = 0.000288036, No Iterations 5
smoothSolver:  Solving for Uy, Initial residual = 0.00312549, Final residual = 0.000265246, No Iterations 5
GAMG:  Solving for p, Initial residual = 0.00675617, Final residual = 0.00037034, No Iterations 2
time step continuity errors : sum local = 0.000787413, global = 0.000134117, cumulative = 0.0201077
smoothSolver:  Solving for omega, Initial residual = 0.000473703, Final residual = 3.78009e-05, No Iterations 4
smoothSolver:  Solving for k, Initial residual = 0.00378178, Final residual = 0.000372528, No Iterations 5
ExecutionTime = 1.22 s  ClockTime = 1 s

scalarTransport execute: age
smoothSolver:  Solving for age, Initial residual = 0.00511113, Final residual = 0.000451697, No Iterations 15

Time = 92

smoothSolver:  Solving for Ux, Initial residual = 0.00305438, Final residual = 0.00026096, No Iterations 5
smoothSolver:  Solving for Uy, Initial residual = 0.00303054, Final residual = 0.000253875, No Iterations 5
GAMG:  Solving for p, Initial residual = 0.00662189, Final residual = 0.00035128, No Iterations 2
time step continuity errors : sum local = 0.000746425, global = 0.000131541, cumulative = 0.0202392
smoothSolver:  Solving for omega, Initial residual = 0.000460882, Final residual = 3.6263e-05, No Iterations 4
smoothSolver:  Solving for k, Initial residual = 0.00358181, Final residual = 0.000347457, No Iterations 5
ExecutionTime = 1.24 s  ClockTime = 1 s

scalarTransport execute: age
smoothSolver:  Solving for age, Initial residual = 0.00495093, Final residual = 0.000449705, No Iterations 15

Time = 93

smoothSolver:  Solving for Ux, Initial residual = 0.00283237, Final residual = 0.000236934, No Iterations 5
smoothSolver:  Solving for Uy, Initial residual = 0.00292822, Final residual = 0.000241592, No Iterations 5
GAMG:  Solving for p, Initial residual = 0.00646261, Final residual = 0.000332404, No Iterations 2
time step continuity errors : sum local = 0.000706242, global = 0.000127416, cumulative = 0.0203667
smoothSolver:  Solving for omega, Initial residual = 0.00044893, Final residual = 3.47989e-05, No Iterations 4
smoothSolver:  Solving for k, Initial residual = 0.00338969, Final residual = 0.000324191, No Iterations 5
ExecutionTime = 1.25 s  ClockTime = 1 s

scalarTransport execute: age
smoothSolver:  Solving for age, Initial residual = 0.00482624, Final residual = 0.00044626, No Iterations 15

Time = 94

smoothSolver:  Solving for Ux, Initial residual = 0.00262964, Final residual = 0.000215429, No Iterations 5
smoothSolver:  Solving for Uy, Initial residual = 0.00281249, Final residual = 0.000228565, No Iterations 5
GAMG:  Solving for p, Initial residual = 0.00629762, Final residual = 0.00031682, No Iterations 2
time step continuity errors : sum local = 0.00067352, global = 0.000124173, cumulative = 0.0204908
smoothSolver:  Solving for omega, Initial residual = 0.000437441, Final residual = 3.3382e-05, No Iterations 4
smoothSolver:  Solving for k, Initial residual = 0.00320125, Final residual = 0.000302505, No Iterations 5
ExecutionTime = 1.26 s  ClockTime = 1 s

scalarTransport execute: age
smoothSolver:  Solving for age, Initial residual = 0.00471406, Final residual = 0.000441596, No Iterations 15

Time = 95

smoothSolver:  Solving for Ux, Initial residual = 0.00244092, Final residual = 0.000196, No Iterations 5
smoothSolver:  Solving for Uy, Initial residual = 0.00268453, Final residual = 0.000214551, No Iterations 5
GAMG:  Solving for p, Initial residual = 0.00607587, Final residual = 0.000303323, No Iterations 2
time step continuity errors : sum local = 0.000645652, global = 0.000120752, cumulative = 0.0206116
smoothSolver:  Solving for omega, Initial residual = 0.000425052, Final residual = 3.19831e-05, No Iterations 4
smoothSolver:  Solving for k, Initial residual = 0.00301536, Final residual = 0.000282332, No Iterations 5
ExecutionTime = 1.27 s  ClockTime = 1 s

scalarTransport execute: age
smoothSolver:  Solving for age, Initial residual = 0.00458931, Final residual = 0.000435707, No Iterations 15

Time = 96

smoothSolver:  Solving for Ux, Initial residual = 0.0022636, Final residual = 0.000178347, No Iterations 5
smoothSolver:  Solving for Uy, Initial residual = 0.00254267, Final residual = 0.00019986, No Iterations 5
[...]
smoothSolver:  Solving for Uy, Initial residual = 3.86925e-07, Final residual = 3.32261e-08, No Iterations 5
GAMG:  Solving for p, Initial residual = 1.2775e-06, Final residual = 8.32481e-08, No Iterations 2
time step continuity errors : sum local = 1.93782e-07, global = -9.95448e-10, cumulative = 0.0207063
smoothSolver:  Solving for omega, Initial residual = 5.91832e-08, Final residual = 8.46927e-09, No Iterations 3
smoothSolver:  Solving for k, Initial residual = 1.73013e-07, Final residual = 1.44833e-08, No Iterations 5
ExecutionTime = 7.44 s  ClockTime = 7 s

scalarTransport execute: age
smoothSolver:  Solving for age, Initial residual = 0.000276794, Final residual = 2.5496e-05, No Iterations 15

Time = 582

smoothSolver:  Solving for Ux, Initial residual = 5.7235e-07, Final residual = 5.08938e-08, No Iterations 5
smoothSolver:  Solving for Uy, Initial residual = 3.83124e-07, Final residual = 3.29133e-08, No Iterations 5
GAMG:  Solving for p, Initial residual = 1.26555e-06, Final residual = 8.27558e-08, No Iterations 2
time step continuity errors : sum local = 1.92636e-07, global = -1.16957e-09, cumulative = 0.0207063
smoothSolver:  Solving for omega, Initial residual = 5.82778e-08, Final residual = 8.40221e-09, No Iterations 3
smoothSolver:  Solving for k, Initial residual = 1.70131e-07, Final residual = 1.42179e-08, No Iterations 5
ExecutionTime = 7.46 s  ClockTime = 7 s

scalarTransport execute: age
smoothSolver:  Solving for age, Initial residual = 0.000276269, Final residual = 2.54475e-05, No Iterations 15

Time = 583

smoothSolver:  Solving for Ux, Initial residual = 5.66695e-07, Final residual = 5.03982e-08, No Iterations 5
smoothSolver:  Solving for Uy, Initial residual = 3.79421e-07, Final residual = 3.26088e-08, No Iterations 5
GAMG:  Solving for p, Initial residual = 1.25304e-06, Final residual = 8.19621e-08, No Iterations 2
time step continuity errors : sum local = 1.90788e-07, global = -1.46939e-09, cumulative = 0.0207063
smoothSolver:  Solving for omega, Initial residual = 5.79024e-08, Final residual = 8.33411e-09, No Iterations 3
smoothSolver:  Solving for k, Initial residual = 1.67356e-07, Final residual = 1.39584e-08, No Iterations 5
ExecutionTime = 7.47 s  ClockTime = 7 s

scalarTransport execute: age
smoothSolver:  Solving for age, Initial residual = 0.000275746, Final residual = 2.53992e-05, No Iterations 15

Time = 584

smoothSolver:  Solving for Ux, Initial residual = 5.61019e-07, Final residual = 4.98973e-08, No Iterations 5
smoothSolver:  Solving for Uy, Initial residual = 3.7553e-07, Final residual = 3.22888e-08, No Iterations 5
GAMG:  Solving for p, Initial residual = 1.24025e-06, Final residual = 8.08576e-08, No Iterations 2
time step continuity errors : sum local = 1.88217e-07, global = -1.03993e-09, cumulative = 0.0207063
smoothSolver:  Solving for omega, Initial residual = 5.75486e-08, Final residual = 8.26753e-09, No Iterations 3
smoothSolver:  Solving for k, Initial residual = 1.64625e-07, Final residual = 1.37031e-08, No Iterations 5
ExecutionTime = 7.48 s  ClockTime = 7 s

scalarTransport execute: age
smoothSolver:  Solving for age, Initial residual = 0.000275225, Final residual = 2.53511e-05, No Iterations 15

Time = 585

smoothSolver:  Solving for Ux, Initial residual = 5.55022e-07, Final residual = 4.93459e-08, No Iterations 5
smoothSolver:  Solving for Uy, Initial residual = 3.71697e-07, Final residual = 3.19705e-08, No Iterations 5
GAMG:  Solving for p, Initial residual = 1.22791e-06, Final residual = 8.03354e-08, No Iterations 2
time step continuity errors : sum local = 1.87001e-07, global = -1.24856e-09, cumulative = 0.0207063
smoothSolver:  Solving for omega, Initial residual = 5.66734e-08, Final residual = 8.19867e-09, No Iterations 3
smoothSolver:  Solving for k, Initial residual = 1.6194e-07, Final residual = 1.34551e-08, No Iterations 5
ExecutionTime = 7.49 s  ClockTime = 7 s

scalarTransport execute: age
smoothSolver:  Solving for age, Initial residual = 0.000274705, Final residual = 2.53032e-05, No Iterations 15

Time = 586

smoothSolver:  Solving for Ux, Initial residual = 5.49365e-07, Final residual = 4.88522e-08, No Iterations 5
smoothSolver:  Solving for Uy, Initial residual = 3.67892e-07, Final residual = 3.16601e-08, No Iterations 5
GAMG:  Solving for p, Initial residual = 1.21515e-06, Final residual = 7.94894e-08, No Iterations 2
time step continuity errors : sum local = 1.85031e-07, global = -1.55132e-09, cumulative = 0.0207063
smoothSolver:  Solving for omega, Initial residual = 5.62856e-08, Final residual = 8.12844e-09, No Iterations 3
smoothSolver:  Solving for k, Initial residual = 1.59321e-07, Final residual = 1.32125e-08, No Iterations 5
ExecutionTime = 7.51 s  ClockTime = 7 s

scalarTransport execute: age
smoothSolver:  Solving for age, Initial residual = 0.000274188, Final residual = 2.52554e-05, No Iterations 15

Time = 587

smoothSolver:  Solving for Ux, Initial residual = 5.43708e-07, Final residual = 4.83519e-08, No Iterations 5
smoothSolver:  Solving for Uy, Initial residual = 3.64017e-07, Final residual = 3.13369e-08, No Iterations 5
GAMG:  Solving for p, Initial residual = 1.20228e-06, Final residual = 7.83464e-08, No Iterations 2
time step continuity errors : sum local = 1.82371e-07, global = -1.15767e-09, cumulative = 0.0207063
smoothSolver:  Solving for omega, Initial residual = 5.59128e-08, Final residual = 8.05987e-09, No Iterations 3
smoothSolver:  Solving for k, Initial residual = 1.56746e-07, Final residual = 1.29736e-08, No Iterations 5
ExecutionTime = 7.52 s  ClockTime = 7 s

scalarTransport execute: age
smoothSolver:  Solving for age, Initial residual = 0.000273673, Final residual = 2.52079e-05, No Iterations 15

Time = 588

smoothSolver:  Solving for Ux, Initial residual = 5.37721e-07, Final residual = 4.78011e-08, No Iterations 5
smoothSolver:  Solving for Uy, Initial residual = 3.60181e-07, Final residual = 3.10165e-08, No Iterations 5
GAMG:  Solving for p, Initial residual = 1.18992e-06, Final residual = 7.77996e-08, No Iterations 2
time step continuity errors : sum local = 1.81098e-07, global = -1.3785e-09, cumulative = 0.0207063
smoothSolver:  Solving for omega, Initial residual = 5.50492e-08, Final residual = 7.98936e-09, No Iterations 3
smoothSolver:  Solving for k, Initial residual = 1.54213e-07, Final residual = 1.27412e-08, No Iterations 5
ExecutionTime = 7.53 s  ClockTime = 7 s

scalarTransport execute: age
smoothSolver:  Solving for age, Initial residual = 0.000273159, Final residual = 2.51606e-05, No Iterations 15

Time = 589

smoothSolver:  Solving for Ux, Initial residual = 5.32058e-07, Final residual = 4.73065e-08, No Iterations 5
smoothSolver:  Solving for Uy, Initial residual = 3.56382e-07, Final residual = 3.07044e-08, No Iterations 5
GAMG:  Solving for p, Initial residual = 1.1772e-06, Final residual = 7.69493e-08, No Iterations 2
time step continuity errors : sum local = 1.79118e-07, global = -1.69244e-09, cumulative = 0.0207063
smoothSolver:  Solving for omega, Initial residual = 5.46498e-08, Final residual = 7.91748e-09, No Iterations 3
smoothSolver:  Solving for k, Initial residual = 1.51734e-07, Final residual = 1.25137e-08, No Iterations 5
ExecutionTime = 7.54 s  ClockTime = 7 s

scalarTransport execute: age
smoothSolver:  Solving for age, Initial residual = 0.000272648, Final residual = 2.51136e-05, No Iterations 15

Time = 590

smoothSolver:  Solving for Ux, Initial residual = 5.26398e-07, Final residual = 4.68054e-08, No Iterations 5
smoothSolver:  Solving for Uy, Initial residual = 3.52517e-07, Final residual = 3.038e-08, No Iterations 5
GAMG:  Solving for p, Initial residual = 1.16436e-06, Final residual = 7.58056e-08, No Iterations 2
time step continuity errors : sum local = 1.76456e-07, global = -1.32084e-09, cumulative = 0.0207063
smoothSolver:  Solving for omega, Initial residual = 5.42716e-08, Final residual = 7.84731e-09, No Iterations 3
smoothSolver:  Solving for k, Initial residual = 1.49293e-07, Final residual = 1.22892e-08, No Iterations 5
ExecutionTime = 7.56 s  ClockTime = 7 s

scalarTransport execute: age
smoothSolver:  Solving for age, Initial residual = 0.000272138, Final residual = 2.50669e-05, No Iterations 15

Time = 591

smoothSolver:  Solving for Ux, Initial residual = 5.20415e-07, Final residual = 4.62551e-08, No Iterations 5
smoothSolver:  Solving for Uy, Initial residual = 3.48694e-07, Final residual = 3.00591e-08, No Iterations 5
GAMG:  Solving for p, Initial residual = 1.15201e-06, Final residual = 7.52626e-08, No Iterations 2
time step continuity errors : sum local = 1.75192e-07, global = -1.54538e-09, cumulative = 0.0207063
smoothSolver:  Solving for omega, Initial residual = 5.34114e-08, Final residual = 7.77538e-09, No Iterations 3
smoothSolver:  Solving for k, Initial residual = 1.469e-07, Final residual = 1.20712e-08, No Iterations 5
ExecutionTime = 7.57 s  ClockTime = 7 s

scalarTransport execute: age
smoothSolver:  Solving for age, Initial residual = 0.000271631, Final residual = 2.50202e-05, No Iterations 15

Time = 592

smoothSolver:  Solving for Ux, Initial residual = 5.14759e-07, Final residual = 4.57606e-08, No Iterations 5
smoothSolver:  Solving for Uy, Initial residual = 3.44905e-07, Final residual = 2.97468e-08, No Iterations 5
GAMG:  Solving for p, Initial residual = 1.13931e-06, Final residual = 7.44175e-08, No Iterations 2
time step continuity errors : sum local = 1.73224e-07, global = -1.85573e-09, cumulative = 0.0207063
smoothSolver:  Solving for omega, Initial residual = 5.3006e-08, Final residual = 7.70228e-09, No Iterations 3
smoothSolver:  Solving for k, Initial residual = 1.44541e-07, Final residual = 1.18573e-08, No Iterations 5
ExecutionTime = 7.58 s  ClockTime = 7 s

scalarTransport execute: age
smoothSolver:  Solving for age, Initial residual = 0.000271125, Final residual = 2.49735e-05, No Iterations 15

Time = 593

smoothSolver:  Solving for Ux, Initial residual = 5.0911e-07, Final residual = 4.52603e-08, No Iterations 5
smoothSolver:  Solving for Uy, Initial residual = 3.41054e-07, Final residual = 2.94227e-08, No Iterations 5
GAMG:  Solving for p, Initial residual = 1.12648e-06, Final residual = 7.32755e-08, No Iterations 2
time step continuity errors : sum local = 1.70566e-07, global = -1.49255e-09, cumulative = 0.0207063
smoothSolver:  Solving for omega, Initial residual = 5.26201e-08, Final residual = 7.63101e-09, No Iterations 3
smoothSolver:  Solving for k, Initial residual = 1.42221e-07, Final residual = 1.16465e-08, No Iterations 5
ExecutionTime = 7.6 s  ClockTime = 7 s

scalarTransport execute: age
smoothSolver:  Solving for age, Initial residual = 0.000270621, Final residual = 2.4927e-05, No Iterations 15

Time = 594

smoothSolver:  Solving for Ux, Initial residual = 5.03155e-07, Final residual = 4.4713e-08, No Iterations 5
smoothSolver:  Solving for Uy, Initial residual = 3.37255e-07, Final residual = 2.91026e-08, No Iterations 5
GAMG:  Solving for p, Initial residual = 1.11414e-06, Final residual = 7.27357e-08, No Iterations 2
time step continuity errors : sum local = 1.69309e-07, global = -1.70811e-09, cumulative = 0.0207063
smoothSolver:  Solving for omega, Initial residual = 5.17678e-08, Final residual = 7.55821e-09, No Iterations 3
smoothSolver:  Solving for k, Initial residual = 1.39948e-07, Final residual = 1.14414e-08, No Iterations 5
ExecutionTime = 7.61 s  ClockTime = 7 s

scalarTransport execute: age
smoothSolver:  Solving for age, Initial residual = 0.000270119, Final residual = 2.48806e-05, No Iterations 15

Time = 595

smoothSolver:  Solving for Ux, Initial residual = 4.97525e-07, Final residual = 4.42208e-08, No Iterations 5
smoothSolver:  Solving for Uy, Initial residual = 3.33481e-07, Final residual = 2.87904e-08, No Iterations 5
GAMG:  Solving for p, Initial residual = 1.10148e-06, Final residual = 7.17198e-08, No Iterations 2
time step continuity errors : sum local = 1.66944e-07, global = -1.37806e-09, cumulative = 0.0207063
smoothSolver:  Solving for omega, Initial residual = 5.15541e-08, Final residual = 7.48679e-09, No Iterations 3
smoothSolver:  Solving for k, Initial residual = 1.37716e-07, Final residual = 1.12391e-08, No Iterations 5
ExecutionTime = 7.62 s  ClockTime = 7 s

scalarTransport execute: age
smoothSolver:  Solving for age, Initial residual = 0.000269618, Final residual = 2.48343e-05, No Iterations 15

Time = 596

smoothSolver:  Solving for Ux, Initial residual = 4.91639e-07, Final residual = 4.36846e-08, No Iterations 5
smoothSolver:  Solving for Uy, Initial residual = 3.29744e-07, Final residual = 2.84725e-08, No Iterations 5
GAMG:  Solving for p, Initial residual = 1.08945e-06, Final residual = 7.12001e-08, No Iterations 2
time step continuity errors : sum local = 1.65735e-07, global = -1.59041e-09, cumulative = 0.0207063
smoothSolver:  Solving for omega, Initial residual = 5.06413e-08, Final residual = 7.41259e-09, No Iterations 3
smoothSolver:  Solving for k, Initial residual = 1.35508e-07, Final residual = 1.10426e-08, No Iterations 5
ExecutionTime = 7.63 s  ClockTime = 7 s

scalarTransport execute: age
smoothSolver:  Solving for age, Initial residual = 0.000269119, Final residual = 2.4788e-05, No Iterations 15

Time = 597

smoothSolver:  Solving for Ux, Initial residual = 4.86099e-07, Final residual = 4.32003e-08, No Iterations 5
smoothSolver:  Solving for Uy, Initial residual = 3.25937e-07, Final residual = 2.81575e-08, No Iterations 5
GAMG:  Solving for p, Initial residual = 1.07658e-06, Final residual = 7.03275e-08, No Iterations 2
time step continuity errors : sum local = 1.63703e-07, global = -1.92042e-09, cumulative = 0.0207063
smoothSolver:  Solving for omega, Initial residual = 5.02599e-08, Final residual = 7.33873e-09, No Iterations 3
smoothSolver:  Solving for k, Initial residual = 1.33348e-07, Final residual = 1.08495e-08, No Iterations 5
ExecutionTime = 7.65 s  ClockTime = 7 s

scalarTransport execute: age
smoothSolver:  Solving for age, Initial residual = 0.000268623, Final residual = 2.47419e-05, No Iterations 15

Time = 598

smoothSolver:  Solving for Ux, Initial residual = 4.80532e-07, Final residual = 4.27096e-08, No Iterations 5
smoothSolver:  Solving for Uy, Initial residual = 3.22055e-07, Final residual = 2.78318e-08, No Iterations 5
GAMG:  Solving for p, Initial residual = 1.06367e-06, Final residual = 6.91476e-08, No Iterations 2
time step continuity errors : sum local = 1.60957e-07, global = -1.59253e-09, cumulative = 0.0207063
smoothSolver:  Solving for omega, Initial residual = 4.98647e-08, Final residual = 7.26606e-09, No Iterations 3
smoothSolver:  Solving for k, Initial residual = 1.31205e-07, Final residual = 1.06592e-08, No Iterations 5
ExecutionTime = 7.66 s  ClockTime = 7 s

scalarTransport execute: age
smoothSolver:  Solving for age, Initial residual = 0.000268128, Final residual = 2.46959e-05, No Iterations 15

Time = 599

smoothSolver:  Solving for Ux, Initial residual = 4.74684e-07, Final residual = 4.21725e-08, No Iterations 5
smoothSolver:  Solving for Uy, Initial residual = 3.1831e-07, Final residual = 2.75125e-08, No Iterations 5
GAMG:  Solving for p, Initial residual = 1.05139e-06, Final residual = 6.85731e-08, No Iterations 2
time step continuity errors : sum local = 1.59619e-07, global = -1.82414e-09, cumulative = 0.0207063
smoothSolver:  Solving for omega, Initial residual = 4.90296e-08, Final residual = 7.19225e-09, No Iterations 3
smoothSolver:  Solving for k, Initial residual = 1.29122e-07, Final residual = 1.04737e-08, No Iterations 5
ExecutionTime = 7.67 s  ClockTime = 7 s

scalarTransport execute: age
smoothSolver:  Solving for age, Initial residual = 0.000267636, Final residual = 2.46503e-05, No Iterations 15

Time = 600

smoothSolver:  Solving for Ux, Initial residual = 4.69127e-07, Final residual = 4.16869e-08, No Iterations 5
smoothSolver:  Solving for Uy, Initial residual = 3.14558e-07, Final residual = 2.72018e-08, No Iterations 5
GAMG:  Solving for p, Initial residual = 1.03892e-06, Final residual = 6.75497e-08, No Iterations 2
time step continuity errors : sum local = 1.57237e-07, global = -1.52992e-09, cumulative = 0.0207063
smoothSolver:  Solving for omega, Initial residual = 4.8805e-08, Final residual = 7.11991e-09, No Iterations 3
smoothSolver:  Solving for k, Initial residual = 1.27063e-07, Final residual = 1.02905e-08, No Iterations 5
ExecutionTime = 7.68 s  ClockTime = 7 s

scalarTransport execute: age
smoothSolver:  Solving for age, Initial residual = 0.000267145, Final residual = 2.4605e-05, No Iterations 15

Time = 601

smoothSolver:  Solving for Ux, Initial residual = 4.63323e-07, Final residual = 4.11588e-08, No Iterations 5
smoothSolver:  Solving for Uy, Initial residual = 3.10875e-07, Final residual = 2.68864e-08, No Iterations 5
GAMG:  Solving for p, Initial residual = 1.02707e-06, Final residual = 6.70354e-08, No Iterations 2
time step continuity errors : sum local = 1.5604e-07, global = -1.75203e-09, cumulative = 0.0207063
smoothSolver:  Solving for omega, Initial residual = 4.7913e-08, Final residual = 7.04499e-09, No Iterations 3
smoothSolver:  Solving for k, Initial residual = 1.25036e-07, Final residual = 1.01122e-08, No Iterations 5
ExecutionTime = 7.7 s  ClockTime = 7 s

scalarTransport execute: age
smoothSolver:  Solving for age, Initial residual = 0.000266656, Final residual = 2.45597e-05, No Iterations 15

Time = 602

smoothSolver:  Solving for Ux, Initial residual = 4.57852e-07, Final residual = 4.06808e-08, No Iterations 5
smoothSolver:  Solving for Uy, Initial residual = 3.07113e-07, Final residual = 2.65742e-08, No Iterations 5
GAMG:  Solving for p, Initial residual = 1.01445e-06, Final residual = 6.60086e-08, No Iterations 2
time step continuity errors : sum local = 1.53649e-07, global = -1.49902e-09, cumulative = 0.0207063
smoothSolver:  Solving for omega, Initial residual = 4.77026e-08, Final residual = 6.97277e-09, No Iterations 3
smoothSolver:  Solving for k, Initial residual = 1.23049e-07, Final residual = 9.93592e-09, No Iterations 5
ExecutionTime = 7.71 s  ClockTime = 7 s

scalarTransport execute: age
smoothSolver:  Solving for age, Initial residual = 0.00026617, Final residual = 2.45145e-05, No Iterations 15

Time = 603

smoothSolver:  Solving for Ux, Initial residual = 4.52115e-07, Final residual = 4.0161e-08, No Iterations 5
smoothSolver:  Solving for Uy, Initial residual = 3.03393e-07, Final residual = 2.62581e-08, No Iterations 5
GAMG:  Solving for p, Initial residual = 1.00243e-06, Final residual = 6.54475e-08, No Iterations 2
time step continuity errors : sum local = 1.52343e-07, global = -1.7263e-09, cumulative = 0.0207063
smoothSolver:  Solving for omega, Initial residual = 4.68262e-08, Final residual = 6.89759e-09, No Iterations 3
smoothSolver:  Solving for k, Initial residual = 1.21084e-07, Final residual = 9.7647e-09, No Iterations 5
ExecutionTime = 7.72 s  ClockTime = 7 s

scalarTransport execute: age
smoothSolver:  Solving for age, Initial residual = 0.000265684, Final residual = 2.44692e-05, No Iterations 15

Time = 604

smoothSolver:  Solving for Ux, Initial residual = 4.46719e-07, Final residual = 3.96886e-08, No Iterations 5
smoothSolver:  Solving for Uy, Initial residual = 2.99677e-07, Final residual = 2.59474e-08, No Iterations 5
GAMG:  Solving for p, Initial residual = 9.89869e-07, Final residual = 6.43961e-08, No Iterations 2
time step continuity errors : sum local = 1.49896e-07, global = -1.50012e-09, cumulative = 0.0207063
smoothSolver:  Solving for omega, Initial residual = 4.66069e-08, Final residual = 6.82525e-09, No Iterations 3
smoothSolver:  Solving for k, Initial residual = 1.19159e-07, Final residual = 9.59504e-09, No Iterations 5
ExecutionTime = 7.73 s  ClockTime = 7 s


SIMPLE solution converged in 604 iterations

scalarTransport execute: age
smoothSolver:  Solving for age, Initial residual = 0.0002652, Final residual = 2.44241e-05, No Iterations 15

End

