/*---------------------------------------------------------------------------*\
| =========                 |                                                 |
| \\      /  F ield         | OpenFOAM: The Open Source CFD Toolbox           |
|  \\    /   O peration     | Version:  v2012                                 |
|   \\  /    A nd           | Website:  www.openfoam.com                      |
|    \\/     M anipulation  |                                                 |
\*---------------------------------------------------------------------------*/
Build  : _7bdb509494-20201222 OPENFOAM=2012
Arch   : "LSB;label=32;scalar=64"
Exec   : simpleFoam
Date   : Feb 23 2023
Time   : 02:45:49
Host   : johnsDesktop
PID    : 19380
I/O    : uncollated
Case   : /home/john/of_runs/cases/0_55_6-00360_9
nProcs : 1
trapFpe: Floating point exception trapping enabled (FOAM_SIGFPE).
fileModificationChecking : Monitoring run-time modified files using timeStampMaster (fileModificationSkew 5, maxFileModificationPolls 20)
allowSystemOperations : Allowing user-supplied system call operations

// * * * * * * * * * * * * * * * * * * * * * * * * * * * * * * * * * * * * * //
Create time

Create mesh for time = 0


SIMPLE: convergence criteria
    field p	 tolerance 1e-06
    field U	 tolerance 1e-06
    field "(k|epsilon|omega|f|v2|age)"	 tolerance 1e-05

Reading field p

Reading field U

Reading/calculating face flux field phi

Selecting incompressible transport model Newtonian
Selecting turbulence model type RAS
Selecting RAS turbulence model kOmegaSST
Selecting patchDistMethod meshWave
RAS
{
    RASModel        kOmegaSST;
    turbulence      on;
    printCoeffs     on;
    alphaK1         0.85;
    alphaK2         1;
    alphaOmega1     0.5;
    alphaOmega2     0.856;
    gamma1          0.555556;
    gamma2          0.44;
    beta1           0.075;
    beta2           0.0828;
    betaStar        0.09;
    a1              0.31;
    b1              1;
    c1              10;
    F3              false;
    decayControl    false;
    kInf            0;
    omegaInf        0;
}

No MRF models present

No finite volume options present

Starting time loop

Selecting finite volume options type scalarSemiImplicitSource
    Source: unitySource
    - selecting all cells
    - selected 6054 cell(s) with volume 0.031725
Time = 1

smoothSolver:  Solving for Ux, Initial residual = 0, Final residual = 0, No Iterations 0
smoothSolver:  Solving for Uy, Initial residual = 1, Final residual = 0.0872933, No Iterations 2
GAMG:  Solving for p, Initial residual = 1, Final residual = 0.0553135, No Iterations 10
time step continuity errors : sum local = 0.00348706, global = -0.000526264, cumulative = -0.000526264
smoothSolver:  Solving for omega, Initial residual = 0.277169, Final residual = 0.0116781, No Iterations 3
smoothSolver:  Solving for k, Initial residual = 1, Final residual = 0.0781019, No Iterations 3
ExecutionTime = 0.05 s  ClockTime = 0 s

scalarTransport execute: age
smoothSolver:  Solving for age, Initial residual = 1, Final residual = 0.0926278, No Iterations 5

Time = 2

smoothSolver:  Solving for Ux, Initial residual = 0.531432, Final residual = 0.045294, No Iterations 6
smoothSolver:  Solving for Uy, Initial residual = 0.275881, Final residual = 0.020344, No Iterations 6
GAMG:  Solving for p, Initial residual = 0.0498669, Final residual = 0.00367878, No Iterations 4
time step continuity errors : sum local = 0.0451479, global = 0.00743348, cumulative = 0.00690722
smoothSolver:  Solving for omega, Initial residual = 0.255014, Final residual = 0.0241334, No Iterations 3
smoothSolver:  Solving for k, Initial residual = 0.600122, Final residual = 0.0561363, No Iterations 4
ExecutionTime = 0.06 s  ClockTime = 0 s

scalarTransport execute: age
smoothSolver:  Solving for age, Initial residual = 0.587621, Final residual = 0.0567954, No Iterations 5

Time = 3

smoothSolver:  Solving for Ux, Initial residual = 0.226379, Final residual = 0.0169978, No Iterations 6
smoothSolver:  Solving for Uy, Initial residual = 0.10005, Final residual = 0.00937716, No Iterations 5
GAMG:  Solving for p, Initial residual = 0.0541541, Final residual = 0.0046065, No Iterations 4
time step continuity errors : sum local = 0.0269179, global = 0.00311835, cumulative = 0.0100256
smoothSolver:  Solving for omega, Initial residual = 0.24357, Final residual = 0.0234777, No Iterations 4
smoothSolver:  Solving for k, Initial residual = 0.506675, Final residual = 0.0380976, No Iterations 5
ExecutionTime = 0.07 s  ClockTime = 0 s

scalarTransport execute: age
smoothSolver:  Solving for age, Initial residual = 0.399418, Final residual = 0.0344276, No Iterations 6

Time = 4

smoothSolver:  Solving for Ux, Initial residual = 0.108287, Final residual = 0.00842948, No Iterations 4
smoothSolver:  Solving for Uy, Initial residual = 0.0511231, Final residual = 0.00337682, No Iterations 5
GAMG:  Solving for p, Initial residual = 0.0861036, Final residual = 0.00505461, No Iterations 3
time step continuity errors : sum local = 0.014137, global = 0.00101288, cumulative = 0.0110384
smoothSolver:  Solving for omega, Initial residual = 0.138603, Final residual = 0.00955588, No Iterations 5
smoothSolver:  Solving for k, Initial residual = 0.435774, Final residual = 0.0370554, No Iterations 5
ExecutionTime = 0.08 s  ClockTime = 0 s

scalarTransport execute: age
smoothSolver:  Solving for age, Initial residual = 0.312259, Final residual = 0.0286287, No Iterations 5

Time = 5

smoothSolver:  Solving for Ux, Initial residual = 0.0880862, Final residual = 0.00843689, No Iterations 5
smoothSolver:  Solving for Uy, Initial residual = 0.0338281, Final residual = 0.00258086, No Iterations 5
GAMG:  Solving for p, Initial residual = 0.0903509, Final residual = 0.004598, No Iterations 2
time step continuity errors : sum local = 0.0100817, global = 0.000753565, cumulative = 0.011792
smoothSolver:  Solving for omega, Initial residual = 0.0974837, Final residual = 0.0073743, No Iterations 5
smoothSolver:  Solving for k, Initial residual = 0.341321, Final residual = 0.0313896, No Iterations 5
ExecutionTime = 0.1 s  ClockTime = 0 s

scalarTransport execute: age
smoothSolver:  Solving for age, Initial residual = 0.265233, Final residual = 0.0222237, No Iterations 4

Time = 6

smoothSolver:  Solving for Ux, Initial residual = 0.0650548, Final residual = 0.00500351, No Iterations 6
smoothSolver:  Solving for Uy, Initial residual = 0.0259502, Final residual = 0.00215453, No Iterations 5
GAMG:  Solving for p, Initial residual = 0.071167, Final residual = 0.00608699, No Iterations 2
time step continuity errors : sum local = 0.0134572, global = -0.000265806, cumulative = 0.0115262
smoothSolver:  Solving for omega, Initial residual = 0.0762166, Final residual = 0.00620833, No Iterations 5
smoothSolver:  Solving for k, Initial residual = 0.272592, Final residual = 0.0266698, No Iterations 5
ExecutionTime = 0.11 s  ClockTime = 0 s

scalarTransport execute: age
smoothSolver:  Solving for age, Initial residual = 0.205031, Final residual = 0.0183918, No Iterations 4

Time = 7

smoothSolver:  Solving for Ux, Initial residual = 0.0515353, Final residual = 0.00386088, No Iterations 6
smoothSolver:  Solving for Uy, Initial residual = 0.0235545, Final residual = 0.00218402, No Iterations 5
GAMG:  Solving for p, Initial residual = 0.0564939, Final residual = 0.00398958, No Iterations 3
time step continuity errors : sum local = 0.00910647, global = -0.000881879, cumulative = 0.0106443
smoothSolver:  Solving for omega, Initial residual = 0.056907, Final residual = 0.00498759, No Iterations 5
smoothSolver:  Solving for k, Initial residual = 0.22588, Final residual = 0.0146275, No Iterations 6
ExecutionTime = 0.12 s  ClockTime = 0 s

scalarTransport execute: age
smoothSolver:  Solving for age, Initial residual = 0.163707, Final residual = 0.0144441, No Iterations 4

Time = 8

smoothSolver:  Solving for Ux, Initial residual = 0.0350334, Final residual = 0.00295977, No Iterations 5
smoothSolver:  Solving for Uy, Initial residual = 0.0200453, Final residual = 0.00187627, No Iterations 5
GAMG:  Solving for p, Initial residual = 0.0408974, Final residual = 0.00308414, No Iterations 2
time step continuity errors : sum local = 0.00820324, global = -0.000508907, cumulative = 0.0101354
smoothSolver:  Solving for omega, Initial residual = 0.0463873, Final residual = 0.00419538, No Iterations 5
smoothSolver:  Solving for k, Initial residual = 0.192727, Final residual = 0.012941, No Iterations 6
ExecutionTime = 0.13 s  ClockTime = 0 s

scalarTransport execute: age
smoothSolver:  Solving for age, Initial residual = 0.131197, Final residual = 0.0112666, No Iterations 4

Time = 9

smoothSolver:  Solving for Ux, Initial residual = 0.0295437, Final residual = 0.00286709, No Iterations 5
smoothSolver:  Solving for Uy, Initial residual = 0.0183808, Final residual = 0.00170635, No Iterations 5
GAMG:  Solving for p, Initial residual = 0.032957, Final residual = 0.00182736, No Iterations 2
time step continuity errors : sum local = 0.00516701, global = -0.000886858, cumulative = 0.00924856
smoothSolver:  Solving for omega, Initial residual = 0.0384497, Final residual = 0.00358105, No Iterations 5
smoothSolver:  Solving for k, Initial residual = 0.16741, Final residual = 0.0115839, No Iterations 6
ExecutionTime = 0.14 s  ClockTime = 0 s

scalarTransport execute: age
smoothSolver:  Solving for age, Initial residual = 0.112735, Final residual = 0.0100048, No Iterations 4

Time = 10

smoothSolver:  Solving for Ux, Initial residual = 0.0276728, Final residual = 0.00185023, No Iterations 6
smoothSolver:  Solving for Uy, Initial residual = 0.0164088, Final residual = 0.00155274, No Iterations 5
GAMG:  Solving for p, Initial residual = 0.0273648, Final residual = 0.0011142, No Iterations 2
time step continuity errors : sum local = 0.00323323, global = -0.000594215, cumulative = 0.00865434
smoothSolver:  Solving for omega, Initial residual = 0.0321639, Final residual = 0.00307686, No Iterations 5
smoothSolver:  Solving for k, Initial residual = 0.14765, Final residual = 0.0104724, No Iterations 6
ExecutionTime = 0.15 s  ClockTime = 0 s

scalarTransport execute: age
smoothSolver:  Solving for age, Initial residual = 0.0954006, Final residual = 0.00825649, No Iterations 4

Time = 11

smoothSolver:  Solving for Ux, Initial residual = 0.0257783, Final residual = 0.00177394, No Iterations 6
smoothSolver:  Solving for Uy, Initial residual = 0.0160027, Final residual = 0.00158297, No Iterations 5
GAMG:  Solving for p, Initial residual = 0.0236111, Final residual = 0.000838537, No Iterations 2
time step continuity errors : sum local = 0.002502, global = -0.000420769, cumulative = 0.00823357
smoothSolver:  Solving for omega, Initial residual = 0.0271304, Final residual = 0.00265492, No Iterations 5
smoothSolver:  Solving for k, Initial residual = 0.13195, Final residual = 0.00954615, No Iterations 6
ExecutionTime = 0.17 s  ClockTime = 0 s

scalarTransport execute: age
smoothSolver:  Solving for age, Initial residual = 0.082047, Final residual = 0.00763494, No Iterations 4

Time = 12

smoothSolver:  Solving for Ux, Initial residual = 0.0242941, Final residual = 0.00168993, No Iterations 6
smoothSolver:  Solving for Uy, Initial residual = 0.0153131, Final residual = 0.00104265, No Iterations 6
GAMG:  Solving for p, Initial residual = 0.0213848, Final residual = 0.000902642, No Iterations 2
time step continuity errors : sum local = 0.00271434, global = -0.000293241, cumulative = 0.00794033
smoothSolver:  Solving for omega, Initial residual = 0.0232365, Final residual = 0.00231137, No Iterations 5
smoothSolver:  Solving for k, Initial residual = 0.119113, Final residual = 0.00876142, No Iterations 6
ExecutionTime = 0.18 s  ClockTime = 0 s

scalarTransport execute: age
smoothSolver:  Solving for age, Initial residual = 0.0722742, Final residual = 0.00704673, No Iterations 4

Time = 13

smoothSolver:  Solving for Ux, Initial residual = 0.0232584, Final residual = 0.0016332, No Iterations 6
smoothSolver:  Solving for Uy, Initial residual = 0.0149822, Final residual = 0.00104715, No Iterations 6
GAMG:  Solving for p, Initial residual = 0.0198882, Final residual = 0.000904448, No Iterations 2
time step continuity errors : sum local = 0.00273415, global = -0.000147949, cumulative = 0.00779238
smoothSolver:  Solving for omega, Initial residual = 0.0201032, Final residual = 0.00129618, No Iterations 6
smoothSolver:  Solving for k, Initial residual = 0.108145, Final residual = 0.00806979, No Iterations 6
ExecutionTime = 0.19 s  ClockTime = 0 s

scalarTransport execute: age
smoothSolver:  Solving for age, Initial residual = 0.0648119, Final residual = 0.00490352, No Iterations 5

Time = 14

smoothSolver:  Solving for Ux, Initial residual = 0.0223425, Final residual = 0.00158342, No Iterations 6
smoothSolver:  Solving for Uy, Initial residual = 0.0148106, Final residual = 0.00105969, No Iterations 6
GAMG:  Solving for p, Initial residual = 0.018868, Final residual = 0.000861215, No Iterations 2
time step continuity errors : sum local = 0.00260973, global = -1.4474e-05, cumulative = 0.00777791
smoothSolver:  Solving for omega, Initial residual = 0.0173822, Final residual = 0.00113669, No Iterations 6
smoothSolver:  Solving for k, Initial residual = 0.0987421, Final residual = 0.00746321, No Iterations 6
ExecutionTime = 0.2 s  ClockTime = 0 s

scalarTransport execute: age
smoothSolver:  Solving for age, Initial residual = 0.0584083, Final residual = 0.00536981, No Iterations 4

Time = 15

smoothSolver:  Solving for Ux, Initial residual = 0.0214942, Final residual = 0.0015333, No Iterations 6
smoothSolver:  Solving for Uy, Initial residual = 0.0147421, Final residual = 0.00106826, No Iterations 6
GAMG:  Solving for p, Initial residual = 0.0179944, Final residual = 0.000822591, No Iterations 2
time step continuity errors : sum local = 0.00249521, global = 0.000101045, cumulative = 0.00787896
smoothSolver:  Solving for omega, Initial residual = 0.0151797, Final residual = 0.00100371, No Iterations 6
smoothSolver:  Solving for k, Initial residual = 0.0907589, Final residual = 0.00693426, No Iterations 6
ExecutionTime = 0.21 s  ClockTime = 0 s

scalarTransport execute: age
smoothSolver:  Solving for age, Initial residual = 0.0534509, Final residual = 0.00521222, No Iterations 4

Time = 16

smoothSolver:  Solving for Ux, Initial residual = 0.0207109, Final residual = 0.0014858, No Iterations 6
smoothSolver:  Solving for Uy, Initial residual = 0.0146301, Final residual = 0.00107296, No Iterations 6
GAMG:  Solving for p, Initial residual = 0.017311, Final residual = 0.000784546, No Iterations 2
time step continuity errors : sum local = 0.00237627, global = 0.000189412, cumulative = 0.00806837
smoothSolver:  Solving for omega, Initial residual = 0.013369, Final residual = 0.000891972, No Iterations 6
smoothSolver:  Solving for k, Initial residual = 0.0838973, Final residual = 0.00646933, No Iterations 6
ExecutionTime = 0.22 s  ClockTime = 0 s

scalarTransport execute: age
smoothSolver:  Solving for age, Initial residual = 0.0480966, Final residual = 0.00386008, No Iterations 5

Time = 17

smoothSolver:  Solving for Ux, Initial residual = 0.0200104, Final residual = 0.00144255, No Iterations 6
smoothSolver:  Solving for Uy, Initial residual = 0.0145625, Final residual = 0.00107448, No Iterations 6
GAMG:  Solving for p, Initial residual = 0.0166788, Final residual = 0.000739833, No Iterations 2
time step continuity errors : sum local = 0.00223431, global = 0.000239734, cumulative = 0.0083081
smoothSolver:  Solving for omega, Initial residual = 0.0118831, Final residual = 0.000797457, No Iterations 6
smoothSolver:  Solving for k, Initial residual = 0.0779349, Final residual = 0.00605759, No Iterations 6
ExecutionTime = 0.24 s  ClockTime = 0 s

scalarTransport execute: age
smoothSolver:  Solving for age, Initial residual = 0.0426437, Final residual = 0.0035722, No Iterations 5

Time = 18

smoothSolver:  Solving for Ux, Initial residual = 0.0193774, Final residual = 0.00140389, No Iterations 6
smoothSolver:  Solving for Uy, Initial residual = 0.0144633, Final residual = 0.00107309, No Iterations 6
GAMG:  Solving for p, Initial residual = 0.0161803, Final residual = 0.000705593, No Iterations 2
time step continuity errors : sum local = 0.00212151, global = 0.000259237, cumulative = 0.00856734
smoothSolver:  Solving for omega, Initial residual = 0.0106341, Final residual = 0.000716743, No Iterations 6
smoothSolver:  Solving for k, Initial residual = 0.0727156, Final residual = 0.00569096, No Iterations 6
ExecutionTime = 0.25 s  ClockTime = 0 s

scalarTransport execute: age
smoothSolver:  Solving for age, Initial residual = 0.0371812, Final residual = 0.00340683, No Iterations 5

Time = 19

smoothSolver:  Solving for Ux, Initial residual = 0.0188059, Final residual = 0.00136985, No Iterations 6
smoothSolver:  Solving for Uy, Initial residual = 0.0143494, Final residual = 0.00106867, No Iterations 6
GAMG:  Solving for p, Initial residual = 0.0157416, Final residual = 0.000685944, No Iterations 2
time step continuity errors : sum local = 0.0020509, global = 0.0002657, cumulative = 0.00883304
smoothSolver:  Solving for omega, Initial residual = 0.00957383, Final residual = 0.000647184, No Iterations 6
smoothSolver:  Solving for k, Initial residual = 0.0681017, Final residual = 0.00536197, No Iterations 6
ExecutionTime = 0.26 s  ClockTime = 0 s

scalarTransport execute: age
smoothSolver:  Solving for age, Initial residual = 0.0329106, Final residual = 0.00298585, No Iterations 5

Time = 20

smoothSolver:  Solving for Ux, Initial residual = 0.0183116, Final residual = 0.00133987, No Iterations 6
smoothSolver:  Solving for Uy, Initial residual = 0.0142081, Final residual = 0.00106279, No Iterations 6
GAMG:  Solving for p, Initial residual = 0.0152657, Final residual = 0.000687799, No Iterations 2
time step continuity errors : sum local = 0.00204151, global = 0.000268605, cumulative = 0.00910164
smoothSolver:  Solving for omega, Initial residual = 0.00866731, Final residual = 0.00058687, No Iterations 6
smoothSolver:  Solving for k, Initial residual = 0.0639915, Final residual = 0.00506467, No Iterations 6
ExecutionTime = 0.27 s  ClockTime = 0 s

scalarTransport execute: age
smoothSolver:  Solving for age, Initial residual = 0.0284761, Final residual = 0.00269691, No Iterations 5

Time = 21

smoothSolver:  Solving for Ux, Initial residual = 0.0178826, Final residual = 0.00131378, No Iterations 6
smoothSolver:  Solving for Uy, Initial residual = 0.0140564, Final residual = 0.00105615, No Iterations 6
GAMG:  Solving for p, Initial residual = 0.0147729, Final residual = 0.000679332, No Iterations 2
time step continuity errors : sum local = 0.00200221, global = 0.00025825, cumulative = 0.00935989
smoothSolver:  Solving for omega, Initial residual = 0.00788326, Final residual = 0.000534479, No Iterations 6
smoothSolver:  Solving for k, Initial residual = 0.0603159, Final residual = 0.00479526, No Iterations 6
ExecutionTime = 0.28 s  ClockTime = 0 s

scalarTransport execute: age
smoothSolver:  Solving for age, Initial residual = 0.0246632, Final residual = 0.00207359, No Iterations 6

Time = 22

smoothSolver:  Solving for Ux, Initial residual = 0.0175338, Final residual = 0.00129262, No Iterations 6
smoothSolver:  Solving for Uy, Initial residual = 0.0138728, Final residual = 0.00104783, No Iterations 6
GAMG:  Solving for p, Initial residual = 0.014245, Final residual = 0.000678425, No Iterations 2
time step continuity errors : sum local = 0.00198629, global = 0.000250324, cumulative = 0.00961022
smoothSolver:  Solving for omega, Initial residual = 0.00719948, Final residual = 0.000488497, No Iterations 6
smoothSolver:  Solving for k, Initial residual = 0.0570033, Final residual = 0.00454953, No Iterations 6
ExecutionTime = 0.28 s  ClockTime = 0 s

scalarTransport execute: age
smoothSolver:  Solving for age, Initial residual = 0.0218258, Final residual = 0.00184269, No Iterations 6

Time = 23

smoothSolver:  Solving for Ux, Initial residual = 0.0172314, Final residual = 0.00127509, No Iterations 6
smoothSolver:  Solving for Uy, Initial residual = 0.0136891, Final residual = 0.00103813, No Iterations 6
GAMG:  Solving for p, Initial residual = 0.013619, Final residual = 0.000673401, No Iterations 2
time step continuity errors : sum local = 0.00196032, global = 0.000240529, cumulative = 0.00985075
smoothSolver:  Solving for omega, Initial residual = 0.00660273, Final residual = 0.000448012, No Iterations 6
smoothSolver:  Solving for k, Initial residual = 0.0540005, Final residual = 0.00432442, No Iterations 6
ExecutionTime = 0.31 s  ClockTime = 0 s

scalarTransport execute: age
smoothSolver:  Solving for age, Initial residual = 0.0198292, Final residual = 0.0016793, No Iterations 6

Time = 24

smoothSolver:  Solving for Ux, Initial residual = 0.0169753, Final residual = 0.00126112, No Iterations 6
smoothSolver:  Solving for Uy, Initial residual = 0.0134972, Final residual = 0.00102744, No Iterations 6
GAMG:  Solving for p, Initial residual = 0.0129808, Final residual = 0.000669334, No Iterations 2
time step continuity errors : sum local = 0.00193586, global = 0.000229991, cumulative = 0.0100807
smoothSolver:  Solving for omega, Initial residual = 0.00607545, Final residual = 0.000412087, No Iterations 6
smoothSolver:  Solving for k, Initial residual = 0.0512669, Final residual = 0.00411767, No Iterations 6
ExecutionTime = 0.32 s  ClockTime = 0 s

scalarTransport execute: age
smoothSolver:  Solving for age, Initial residual = 0.018477, Final residual = 0.00157751, No Iterations 6

Time = 25

smoothSolver:  Solving for Ux, Initial residual = 0.0167243, Final residual = 0.00124877, No Iterations 6
smoothSolver:  Solving for Uy, Initial residual = 0.0133003, Final residual = 0.00101623, No Iterations 6
GAMG:  Solving for p, Initial residual = 0.0123444, Final residual = 0.000664714, No Iterations 2
time step continuity errors : sum local = 0.00190921, global = 0.000220067, cumulative = 0.0103008
smoothSolver:  Solving for omega, Initial residual = 0.00560539, Final residual = 0.000380079, No Iterations 6
smoothSolver:  Solving for k, Initial residual = 0.0487672, Final residual = 0.00392696, No Iterations 6
ExecutionTime = 0.33 s  ClockTime = 0 s

scalarTransport execute: age
smoothSolver:  Solving for age, Initial residual = 0.0173917, Final residual = 0.00152691, No Iterations 6

Time = 26

smoothSolver:  Solving for Ux, Initial residual = 0.0164967, Final residual = 0.00123693, No Iterations 6
smoothSolver:  Solving for Uy, Initial residual = 0.0131103, Final residual = 0.00100426, No Iterations 6
GAMG:  Solving for p, Initial residual = 0.0117542, Final residual = 0.000656179, No Iterations 2
time step continuity errors : sum local = 0.0018704, global = 0.000211286, cumulative = 0.0105121
smoothSolver:  Solving for omega, Initial residual = 0.00519048, Final residual = 0.00035153, No Iterations 6
smoothSolver:  Solving for k, Initial residual = 0.0464708, Final residual = 0.00375031, No Iterations 6
ExecutionTime = 0.34 s  ClockTime = 0 s

scalarTransport execute: age
smoothSolver:  Solving for age, Initial residual = 0.0164749, Final residual = 0.0015733, No Iterations 6

Time = 27

smoothSolver:  Solving for Ux, Initial residual = 0.0162793, Final residual = 0.00122546, No Iterations 6
smoothSolver:  Solving for Uy, Initial residual = 0.0129538, Final residual = 0.00099212, No Iterations 6
GAMG:  Solving for p, Initial residual = 0.0114213, Final residual = 0.000644668, No Iterations 2
time step continuity errors : sum local = 0.00182372, global = 0.000204268, cumulative = 0.0107164
smoothSolver:  Solving for omega, Initial residual = 0.00482136, Final residual = 0.000326148, No Iterations 6
smoothSolver:  Solving for k, Initial residual = 0.0443463, Final residual = 0.00358571, No Iterations 6
ExecutionTime = 0.35 s  ClockTime = 0 s

scalarTransport execute: age
smoothSolver:  Solving for age, Initial residual = 0.0157792, Final residual = 0.00137328, No Iterations 7

Time = 28

smoothSolver:  Solving for Ux, Initial residual = 0.0160706, Final residual = 0.00121435, No Iterations 6
smoothSolver:  Solving for Uy, Initial residual = 0.0128128, Final residual = 0.000979257, No Iterations 6
GAMG:  Solving for p, Initial residual = 0.0114651, Final residual = 0.000630079, No Iterations 2
time step continuity errors : sum local = 0.0017713, global = 0.000199299, cumulative = 0.0109157
smoothSolver:  Solving for omega, Initial residual = 0.00449524, Final residual = 0.000303615, No Iterations 6
smoothSolver:  Solving for k, Initial residual = 0.0423763, Final residual = 0.00343204, No Iterations 6
ExecutionTime = 0.36 s  ClockTime = 0 s

scalarTransport execute: age
smoothSolver:  Solving for age, Initial residual = 0.0151545, Final residual = 0.00144032, No Iterations 7

Time = 29

smoothSolver:  Solving for Ux, Initial residual = 0.0158872, Final residual = 0.0012046, No Iterations 6
smoothSolver:  Solving for Uy, Initial residual = 0.0126766, Final residual = 0.000965938, No Iterations 6
GAMG:  Solving for p, Initial residual = 0.0116552, Final residual = 0.000612464, No Iterations 2
time step continuity errors : sum local = 0.00171264, global = 0.000196962, cumulative = 0.0111126
smoothSolver:  Solving for omega, Initial residual = 0.0042044, Final residual = 0.000283315, No Iterations 6
smoothSolver:  Solving for k, Initial residual = 0.0405421, Final residual = 0.0032881, No Iterations 6
ExecutionTime = 0.38 s  ClockTime = 0 s

scalarTransport execute: age
smoothSolver:  Solving for age, Initial residual = 0.014694, Final residual = 0.00123843, No Iterations 8

Time = 30

smoothSolver:  Solving for Ux, Initial residual = 0.0157524, Final residual = 0.00119725, No Iterations 6
smoothSolver:  Solving for Uy, Initial residual = 0.0125217, Final residual = 0.000950942, No Iterations 6
GAMG:  Solving for p, Initial residual = 0.0118624, Final residual = 0.000600628, No Iterations 2
time step continuity errors : sum local = 0.00167083, global = 0.000196861, cumulative = 0.0113095
smoothSolver:  Solving for omega, Initial residual = 0.00394265, Final residual = 0.000264859, No Iterations 6
smoothSolver:  Solving for k, Initial residual = 0.0388255, Final residual = 0.0031526, No Iterations 6
ExecutionTime = 0.39 s  ClockTime = 0 s

scalarTransport execute: age
smoothSolver:  Solving for age, Initial residual = 0.0142338, Final residual = 0.0012725, No Iterations 8

Time = 31

smoothSolver:  Solving for Ux, Initial residual = 0.0156639, Final residual = 0.00119171, No Iterations 6
smoothSolver:  Solving for Uy, Initial residual = 0.0123341, Final residual = 0.000934143, No Iterations 6
GAMG:  Solving for p, Initial residual = 0.0119694, Final residual = 0.00059815, No Iterations 2
time step continuity errors : sum local = 0.00165361, global = 0.000197431, cumulative = 0.0115069
smoothSolver:  Solving for omega, Initial residual = 0.00370729, Final residual = 0.000248027, No Iterations 6
smoothSolver:  Solving for k, Initial residual = 0.0372152, Final residual = 0.00302486, No Iterations 6
ExecutionTime = 0.4 s  ClockTime = 0 s

scalarTransport execute: age
smoothSolver:  Solving for age, Initial residual = 0.0141147, Final residual = 0.00134796, No Iterations 8

Time = 32

smoothSolver:  Solving for Ux, Initial residual = 0.0155841, Final residual = 0.00118606, No Iterations 6
smoothSolver:  Solving for Uy, Initial residual = 0.0121183, Final residual = 0.000915205, No Iterations 6
GAMG:  Solving for p, Initial residual = 0.0118924, Final residual = 0.000606212, No Iterations 2
time step continuity errors : sum local = 0.00166615, global = 0.000187837, cumulative = 0.0116947
smoothSolver:  Solving for omega, Initial residual = 0.00349314, Final residual = 0.00023264, No Iterations 6
smoothSolver:  Solving for k, Initial residual = 0.0357022, Final residual = 0.00290431, No Iterations 6
ExecutionTime = 0.41 s  ClockTime = 0 s

scalarTransport execute: age
smoothSolver:  Solving for age, Initial residual = 0.0141573, Final residual = 0.00140563, No Iterations 8

Time = 33

smoothSolver:  Solving for Ux, Initial residual = 0.0155137, Final residual = 0.00118062, No Iterations 6
smoothSolver:  Solving for Uy, Initial residual = 0.0118541, Final residual = 0.000894232, No Iterations 6
GAMG:  Solving for p, Initial residual = 0.011605, Final residual = 0.000602227, No Iterations 2
time step continuity errors : sum local = 0.0016459, global = 0.000170896, cumulative = 0.0118656
smoothSolver:  Solving for omega, Initial residual = 0.00330101, Final residual = 0.00021851, No Iterations 6
smoothSolver:  Solving for k, Initial residual = 0.0342756, Final residual = 0.00279034, No Iterations 6
ExecutionTime = 0.42 s  ClockTime = 0 s

scalarTransport execute: age
smoothSolver:  Solving for age, Initial residual = 0.0142585, Final residual = 0.00127086, No Iterations 9

Time = 34

smoothSolver:  Solving for Ux, Initial residual = 0.015431, Final residual = 0.00117384, No Iterations 6
smoothSolver:  Solving for Uy, Initial residual = 0.0115545, Final residual = 0.000872144, No Iterations 6
GAMG:  Solving for p, Initial residual = 0.0111747, Final residual = 0.000591981, No Iterations 2
time step continuity errors : sum local = 0.00160875, global = 0.000155195, cumulative = 0.0120208
smoothSolver:  Solving for omega, Initial residual = 0.00312053, Final residual = 0.000205481, No Iterations 6
smoothSolver:  Solving for k, Initial residual = 0.0329285, Final residual = 0.00268279, No Iterations 6
ExecutionTime = 0.44 s  ClockTime = 0 s

scalarTransport execute: age
smoothSolver:  Solving for age, Initial residual = 0.0144385, Final residual = 0.00132858, No Iterations 9

Time = 35

smoothSolver:  Solving for Ux, Initial residual = 0.0153186, Final residual = 0.00116602, No Iterations 6
smoothSolver:  Solving for Uy, Initial residual = 0.0112325, Final residual = 0.000849728, No Iterations 6
GAMG:  Solving for p, Initial residual = 0.010709, Final residual = 0.000573854, No Iterations 2
time step continuity errors : sum local = 0.00155227, global = 0.000138388, cumulative = 0.0121592
smoothSolver:  Solving for omega, Initial residual = 0.0029529, Final residual = 0.000193449, No Iterations 6
smoothSolver:  Solving for k, Initial residual = 0.0316586, Final residual = 0.00258137, No Iterations 6
ExecutionTime = 0.45 s  ClockTime = 0 s

scalarTransport execute: age
smoothSolver:  Solving for age, Initial residual = 0.0147333, Final residual = 0.00142349, No Iterations 9

Time = 36

smoothSolver:  Solving for Ux, Initial residual = 0.015186, Final residual = 0.00115616, No Iterations 6
smoothSolver:  Solving for Uy, Initial residual = 0.0109017, Final residual = 0.000828101, No Iterations 6
GAMG:  Solving for p, Initial residual = 0.0103468, Final residual = 0.00055856, No Iterations 2
time step continuity errors : sum local = 0.00150693, global = 0.000123624, cumulative = 0.0122829
smoothSolver:  Solving for omega, Initial residual = 0.00279735, Final residual = 0.000182274, No Iterations 6
smoothSolver:  Solving for k, Initial residual = 0.030463, Final residual = 0.00248605, No Iterations 6
ExecutionTime = 0.46 s  ClockTime = 0 s

scalarTransport execute: age
smoothSolver:  Solving for age, Initial residual = 0.015551, Final residual = 0.00147925, No Iterations 9

Time = 37

smoothSolver:  Solving for Ux, Initial residual = 0.0150377, Final residual = 0.0011448, No Iterations 6
smoothSolver:  Solving for Uy, Initial residual = 0.0106117, Final residual = 0.00080834, No Iterations 6
GAMG:  Solving for p, Initial residual = 0.00988138, Final residual = 0.000566708, No Iterations 2
time step continuity errors : sum local = 0.00151736, global = 0.000111121, cumulative = 0.012394
smoothSolver:  Solving for omega, Initial residual = 0.00265396, Final residual = 0.000171853, No Iterations 6
smoothSolver:  Solving for k, Initial residual = 0.0293385, Final residual = 0.00239655, No Iterations 6
ExecutionTime = 0.47 s  ClockTime = 0 s

scalarTransport execute: age
smoothSolver:  Solving for age, Initial residual = 0.0157367, Final residual = 0.00136495, No Iterations 10

Time = 38

smoothSolver:  Solving for Ux, Initial residual = 0.0148734, Final residual = 0.00113198, No Iterations 6
smoothSolver:  Solving for Uy, Initial residual = 0.0103457, Final residual = 0.000789881, No Iterations 6
GAMG:  Solving for p, Initial residual = 0.00966641, Final residual = 0.000594519, No Iterations 2
time step continuity errors : sum local = 0.00158514, global = 0.000100865, cumulative = 0.0124948
smoothSolver:  Solving for omega, Initial residual = 0.00252196, Final residual = 0.000250728, No Iterations 5
smoothSolver:  Solving for k, Initial residual = 0.0283034, Final residual = 0.00231401, No Iterations 6
ExecutionTime = 0.48 s  ClockTime = 0 s

scalarTransport execute: age
smoothSolver:  Solving for age, Initial residual = 0.0160009, Final residual = 0.00145261, No Iterations 10

Time = 39

smoothSolver:  Solving for Ux, Initial residual = 0.0147418, Final residual = 0.00111841, No Iterations 6
smoothSolver:  Solving for Uy, Initial residual = 0.0100978, Final residual = 0.000773192, No Iterations 6
GAMG:  Solving for p, Initial residual = 0.00952439, Final residual = 0.000630908, No Iterations 2
time step continuity errors : sum local = 0.00167452, global = 9.3368e-05, cumulative = 0.0125882
smoothSolver:  Solving for omega, Initial residual = 0.00241121, Final residual = 0.000238026, No Iterations 5
smoothSolver:  Solving for k, Initial residual = 0.0273425, Final residual = 0.00223704, No Iterations 6
ExecutionTime = 0.49 s  ClockTime = 0 s

scalarTransport execute: age
smoothSolver:  Solving for age, Initial residual = 0.0163904, Final residual = 0.00158374, No Iterations 10

Time = 40

smoothSolver:  Solving for Ux, Initial residual = 0.0146106, Final residual = 0.00110365, No Iterations 6
smoothSolver:  Solving for Uy, Initial residual = 0.00987241, Final residual = 0.000758161, No Iterations 6
GAMG:  Solving for p, Initial residual = 0.00942455, Final residual = 0.000663736, No Iterations 2
time step continuity errors : sum local = 0.00175362, global = 8.90207e-05, cumulative = 0.0126772
smoothSolver:  Solving for omega, Initial residual = 0.00230646, Final residual = 0.000226067, No Iterations 5
smoothSolver:  Solving for k, Initial residual = 0.0264384, Final residual = 0.0021644, No Iterations 6
ExecutionTime = 0.51 s  ClockTime = 0 s

scalarTransport execute: age
smoothSolver:  Solving for age, Initial residual = 0.0169394, Final residual = 0.00152155, No Iterations 11

Time = 41

smoothSolver:  Solving for Ux, Initial residual = 0.0144734, Final residual = 0.00108808, No Iterations 6
smoothSolver:  Solving for Uy, Initial residual = 0.00967227, Final residual = 0.000745161, No Iterations 6
GAMG:  Solving for p, Initial residual = 0.00936125, Final residual = 0.00068986, No Iterations 2
time step continuity errors : sum local = 0.0018153, global = 8.91867e-05, cumulative = 0.0127664
smoothSolver:  Solving for omega, Initial residual = 0.00220367, Final residual = 0.00021471, No Iterations 5
smoothSolver:  Solving for k, Initial residual = 0.0255884, Final residual = 0.00209574, No Iterations 6
ExecutionTime = 0.52 s  ClockTime = 0 s

scalarTransport execute: age
smoothSolver:  Solving for age, Initial residual = 0.017656, Final residual = 0.0016652, No Iterations 11

Time = 42

smoothSolver:  Solving for Ux, Initial residual = 0.0143157, Final residual = 0.00107173, No Iterations 6
smoothSolver:  Solving for Uy, Initial residual = 0.00951198, Final residual = 0.000734126, No Iterations 6
GAMG:  Solving for p, Initial residual = 0.00931124, Final residual = 0.000706959, No Iterations 2
time step continuity errors : sum local = 0.00185324, global = 9.15831e-05, cumulative = 0.012858
smoothSolver:  Solving for omega, Initial residual = 0.00210649, Final residual = 0.000203956, No Iterations 5
smoothSolver:  Solving for k, Initial residual = 0.0247899, Final residual = 0.00203078, No Iterations 6
ExecutionTime = 0.53 s  ClockTime = 0 s

scalarTransport execute: age
smoothSolver:  Solving for age, Initial residual = 0.0183551, Final residual = 0.00179796, No Iterations 11

Time = 43

smoothSolver:  Solving for Ux, Initial residual = 0.0141526, Final residual = 0.00105449, No Iterations 6
smoothSolver:  Solving for Uy, Initial residual = 0.00937382, Final residual = 0.000724922, No Iterations 6
GAMG:  Solving for p, Initial residual = 0.00923855, Final residual = 0.000716795, No Iterations 2
time step continuity errors : sum local = 0.00187227, global = 9.53667e-05, cumulative = 0.0129534
smoothSolver:  Solving for omega, Initial residual = 0.00201653, Final residual = 0.000193848, No Iterations 5
smoothSolver:  Solving for k, Initial residual = 0.02404, Final residual = 0.00196922, No Iterations 6
ExecutionTime = 0.54 s  ClockTime = 0 s

scalarTransport execute: age
smoothSolver:  Solving for age, Initial residual = 0.019061, Final residual = 0.0016994, No Iterations 12

Time = 44

smoothSolver:  Solving for Ux, Initial residual = 0.0139793, Final residual = 0.00103646, No Iterations 6
smoothSolver:  Solving for Uy, Initial residual = 0.0092545, Final residual = 0.000717262, No Iterations 6
GAMG:  Solving for p, Initial residual = 0.00914691, Final residual = 0.000720991, No Iterations 2
time step continuity errors : sum local = 0.00187641, global = 9.9915e-05, cumulative = 0.0130533
smoothSolver:  Solving for omega, Initial residual = 0.00193271, Final residual = 0.000184373, No Iterations 5
smoothSolver:  Solving for k, Initial residual = 0.023335, Final residual = 0.00191083, No Iterations 6
ExecutionTime = 0.55 s  ClockTime = 0 s

scalarTransport execute: age
smoothSolver:  Solving for age, Initial residual = 0.019727, Final residual = 0.00178689, No Iterations 12

Time = 45

smoothSolver:  Solving for Ux, Initial residual = 0.0137928, Final residual = 0.00101776, No Iterations 6
smoothSolver:  Solving for Uy, Initial residual = 0.00915143, Final residual = 0.000711229, No Iterations 6
GAMG:  Solving for p, Initial residual = 0.00903082, Final residual = 0.000719941, No Iterations 2
time step continuity errors : sum local = 0.00186645, global = 0.000104135, cumulative = 0.0131574
smoothSolver:  Solving for omega, Initial residual = 0.00185517, Final residual = 0.000175488, No Iterations 5
smoothSolver:  Solving for k, Initial residual = 0.0226736, Final residual = 0.00185558, No Iterations 6
ExecutionTime = 0.57 s  ClockTime = 0 s

scalarTransport execute: age
smoothSolver:  Solving for age, Initial residual = 0.0199217, Final residual = 0.00181982, No Iterations 12

Time = 46

smoothSolver:  Solving for Ux, Initial residual = 0.0135921, Final residual = 0.000998681, No Iterations 6
smoothSolver:  Solving for Uy, Initial residual = 0.0090643, Final residual = 0.000706388, No Iterations 6
GAMG:  Solving for p, Initial residual = 0.0088568, Final residual = 0.000712826, No Iterations 2
time step continuity errors : sum local = 0.00183966, global = 0.000105244, cumulative = 0.0132627
smoothSolver:  Solving for omega, Initial residual = 0.00178208, Final residual = 0.000167203, No Iterations 5
smoothSolver:  Solving for k, Initial residual = 0.0220492, Final residual = 0.0018032, No Iterations 6
ExecutionTime = 0.58 s  ClockTime = 0 s

scalarTransport execute: age
smoothSolver:  Solving for age, Initial residual = 0.0197757, Final residual = 0.00172207, No Iterations 12

Time = 47

smoothSolver:  Solving for Ux, Initial residual = 0.013383, Final residual = 0.000979405, No Iterations 6
smoothSolver:  Solving for Uy, Initial residual = 0.00898522, Final residual = 0.000702331, No Iterations 6
GAMG:  Solving for p, Initial residual = 0.00866591, Final residual = 0.000705729, No Iterations 2
time step continuity errors : sum local = 0.00181193, global = 0.000105021, cumulative = 0.0133677
smoothSolver:  Solving for omega, Initial residual = 0.00171362, Final residual = 0.000159481, No Iterations 5
smoothSolver:  Solving for k, Initial residual = 0.0214612, Final residual = 0.00175355, No Iterations 6
ExecutionTime = 0.59 s  ClockTime = 0 s

scalarTransport execute: age
smoothSolver:  Solving for age, Initial residual = 0.0193124, Final residual = 0.00179239, No Iterations 11

Time = 48

smoothSolver:  Solving for Ux, Initial residual = 0.0131612, Final residual = 0.000959735, No Iterations 6
smoothSolver:  Solving for Uy, Initial residual = 0.00891221, Final residual = 0.000698774, No Iterations 6
GAMG:  Solving for p, Initial residual = 0.00846825, Final residual = 0.00069801, No Iterations 2
time step continuity errors : sum local = 0.00178197, global = 0.000103375, cumulative = 0.0134711
smoothSolver:  Solving for omega, Initial residual = 0.00164923, Final residual = 0.000152287, No Iterations 5
smoothSolver:  Solving for k, Initial residual = 0.0209037, Final residual = 0.00170636, No Iterations 6
ExecutionTime = 0.6 s  ClockTime = 0 s

scalarTransport execute: age
smoothSolver:  Solving for age, Initial residual = 0.0182812, Final residual = 0.00160076, No Iterations 11

Time = 49

smoothSolver:  Solving for Ux, Initial residual = 0.0129273, Final residual = 0.000939323, No Iterations 6
smoothSolver:  Solving for Uy, Initial residual = 0.00884088, Final residual = 0.000695449, No Iterations 6
GAMG:  Solving for p, Initial residual = 0.00827507, Final residual = 0.000693164, No Iterations 2
time step continuity errors : sum local = 0.00175918, global = 0.000100703, cumulative = 0.0135718
smoothSolver:  Solving for omega, Initial residual = 0.0015902, Final residual = 0.000145576, No Iterations 5
smoothSolver:  Solving for k, Initial residual = 0.0203778, Final residual = 0.00166156, No Iterations 6
ExecutionTime = 0.61 s  ClockTime = 0 s

scalarTransport execute: age
smoothSolver:  Solving for age, Initial residual = 0.017439, Final residual = 0.00163111, No Iterations 10

Time = 50

smoothSolver:  Solving for Ux, Initial residual = 0.0126791, Final residual = 0.000918083, No Iterations 6
smoothSolver:  Solving for Uy, Initial residual = 0.00876855, Final residual = 0.000692051, No Iterations 6
GAMG:  Solving for p, Initial residual = 0.00809774, Final residual = 0.000692231, No Iterations 2
time step continuity errors : sum local = 0.00174641, global = 9.75602e-05, cumulative = 0.0136693
smoothSolver:  Solving for omega, Initial residual = 0.00153546, Final residual = 0.000139348, No Iterations 5
smoothSolver:  Solving for k, Initial residual = 0.0198804, Final residual = 0.00161888, No Iterations 6
ExecutionTime = 0.63 s  ClockTime = 0 s

scalarTransport execute: age
smoothSolver:  Solving for age, Initial residual = 0.0167399, Final residual = 0.00150419, No Iterations 10

Time = 51

smoothSolver:  Solving for Ux, Initial residual = 0.0124232, Final residual = 0.000896011, No Iterations 6
smoothSolver:  Solving for Uy, Initial residual = 0.00869557, Final residual = 0.000688174, No Iterations 6
GAMG:  Solving for p, Initial residual = 0.00793853, Final residual = 0.000696361, No Iterations 2
time step continuity errors : sum local = 0.0017464, global = 9.44126e-05, cumulative = 0.0137637
smoothSolver:  Solving for omega, Initial residual = 0.00148248, Final residual = 0.000133551, No Iterations 5
smoothSolver:  Solving for k, Initial residual = 0.0194083, Final residual = 0.00157806, No Iterations 6
ExecutionTime = 0.64 s  ClockTime = 0 s

scalarTransport execute: age
smoothSolver:  Solving for age, Initial residual = 0.0161468, Final residual = 0.00161388, No Iterations 9

Time = 52

smoothSolver:  Solving for Ux, Initial residual = 0.0121521, Final residual = 0.000873038, No Iterations 6
smoothSolver:  Solving for Uy, Initial residual = 0.00861936, Final residual = 0.000683898, No Iterations 6
GAMG:  Solving for p, Initial residual = 0.00778225, Final residual = 0.000703735, No Iterations 2
time step continuity errors : sum local = 0.00175443, global = 9.15879e-05, cumulative = 0.0138553
smoothSolver:  Solving for omega, Initial residual = 0.00143286, Final residual = 0.000128144, No Iterations 5
smoothSolver:  Solving for k, Initial residual = 0.0189577, Final residual = 0.00153895, No Iterations 6
ExecutionTime = 0.65 s  ClockTime = 0 s

scalarTransport execute: age
smoothSolver:  Solving for age, Initial residual = 0.015526, Final residual = 0.00150522, No Iterations 9

Time = 53

smoothSolver:  Solving for Ux, Initial residual = 0.011869, Final residual = 0.000849277, No Iterations 6
smoothSolver:  Solving for Uy, Initial residual = 0.00853599, Final residual = 0.0006792, No Iterations 6
GAMG:  Solving for p, Initial residual = 0.00764905, Final residual = 0.000712482, No Iterations 2
time step continuity errors : sum local = 0.00176462, global = 8.93401e-05, cumulative = 0.0139447
smoothSolver:  Solving for omega, Initial residual = 0.00138781, Final residual = 0.000123082, No Iterations 5
smoothSolver:  Solving for k, Initial residual = 0.0185281, Final residual = 0.00150134, No Iterations 6
ExecutionTime = 0.66 s  ClockTime = 0 s

scalarTransport execute: age
smoothSolver:  Solving for age, Initial residual = 0.0149896, Final residual = 0.00141607, No Iterations 9

Time = 54

smoothSolver:  Solving for Ux, Initial residual = 0.0115785, Final residual = 0.00082476, No Iterations 6
smoothSolver:  Solving for Uy, Initial residual = 0.00844926, Final residual = 0.000673684, No Iterations 6
GAMG:  Solving for p, Initial residual = 0.00753186, Final residual = 0.000722386, No Iterations 2
time step continuity errors : sum local = 0.00177615, global = 8.78646e-05, cumulative = 0.0140325
smoothSolver:  Solving for omega, Initial residual = 0.00134726, Final residual = 0.000118293, No Iterations 5
smoothSolver:  Solving for k, Initial residual = 0.0181145, Final residual = 0.00146503, No Iterations 6
ExecutionTime = 0.66 s  ClockTime = 0 s

scalarTransport execute: age
smoothSolver:  Solving for age, Initial residual = 0.0143386, Final residual = 0.00134184, No Iterations 9

Time = 55

smoothSolver:  Solving for Ux, Initial residual = 0.011287, Final residual = 0.000799712, No Iterations 6
smoothSolver:  Solving for Uy, Initial residual = 0.00835728, Final residual = 0.000666725, No Iterations 6
GAMG:  Solving for p, Initial residual = 0.00742443, Final residual = 0.000733252, No Iterations 2
time step continuity errors : sum local = 0.00178901, global = 8.73531e-05, cumulative = 0.0141199
smoothSolver:  Solving for omega, Initial residual = 0.00130826, Final residual = 0.000113692, No Iterations 5
smoothSolver:  Solving for k, Initial residual = 0.0177152, Final residual = 0.0014298, No Iterations 6
ExecutionTime = 0.67 s  ClockTime = 0 s

scalarTransport execute: age
smoothSolver:  Solving for age, Initial residual = 0.013663, Final residual = 0.00128574, No Iterations 9

Time = 56

smoothSolver:  Solving for Ux, Initial residual = 0.0109976, Final residual = 0.000774289, No Iterations 6
smoothSolver:  Solving for Uy, Initial residual = 0.00825541, Final residual = 0.00065791, No Iterations 6
GAMG:  Solving for p, Initial residual = 0.00732819, Final residual = 0.000417477, No Iterations 3
time step continuity errors : sum local = 0.00101062, global = 8.7942e-05, cumulative = 0.0142078
smoothSolver:  Solving for omega, Initial residual = 0.00127518, Final residual = 0.000109064, No Iterations 5
smoothSolver:  Solving for k, Initial residual = 0.0173447, Final residual = 0.00139614, No Iterations 6
ExecutionTime = 0.7 s  ClockTime = 0 s

scalarTransport execute: age
smoothSolver:  Solving for age, Initial residual = 0.0130584, Final residual = 0.00121254, No Iterations 9

Time = 57

smoothSolver:  Solving for Ux, Initial residual = 0.0108233, Final residual = 0.000756938, No Iterations 6
smoothSolver:  Solving for Uy, Initial residual = 0.00820101, Final residual = 0.000653042, No Iterations 6
GAMG:  Solving for p, Initial residual = 0.00715043, Final residual = 0.00064662, No Iterations 2
time step continuity errors : sum local = 0.00154701, global = 7.72301e-05, cumulative = 0.014285
smoothSolver:  Solving for omega, Initial residual = 0.00121967, Final residual = 0.000104193, No Iterations 5
smoothSolver:  Solving for k, Initial residual = 0.0169612, Final residual = 0.00136277, No Iterations 6
ExecutionTime = 0.71 s  ClockTime = 0 s

scalarTransport execute: age
smoothSolver:  Solving for age, Initial residual = 0.012576, Final residual = 0.00115192, No Iterations 9

Time = 58

smoothSolver:  Solving for Ux, Initial residual = 0.0104653, Final residual = 0.000728789, No Iterations 6
smoothSolver:  Solving for Uy, Initial residual = 0.00802985, Final residual = 0.000634937, No Iterations 6
GAMG:  Solving for p, Initial residual = 0.00729324, Final residual = 0.000384233, No Iterations 3
time step continuity errors : sum local = 0.000913922, global = 8.05444e-05, cumulative = 0.0143656
smoothSolver:  Solving for omega, Initial residual = 0.00117455, Final residual = 9.915e-05, No Iterations 5
smoothSolver:  Solving for k, Initial residual = 0.0165881, Final residual = 0.00133041, No Iterations 6
ExecutionTime = 0.72 s  ClockTime = 0 s

scalarTransport execute: age
smoothSolver:  Solving for age, Initial residual = 0.0119739, Final residual = 0.00108296, No Iterations 9

Time = 59

smoothSolver:  Solving for Ux, Initial residual = 0.0101937, Final residual = 0.000698761, No Iterations 6
smoothSolver:  Solving for Uy, Initial residual = 0.00787229, Final residual = 0.000621921, No Iterations 6
GAMG:  Solving for p, Initial residual = 0.00691278, Final residual = 0.000677858, No Iterations 2
time step continuity errors : sum local = 0.00159974, global = 7.84203e-05, cumulative = 0.014444
smoothSolver:  Solving for omega, Initial residual = 0.00113828, Final residual = 9.58826e-05, No Iterations 5
smoothSolver:  Solving for k, Initial residual = 0.0162167, Final residual = 0.00129785, No Iterations 6
ExecutionTime = 0.72 s  ClockTime = 0 s

scalarTransport execute: age
smoothSolver:  Solving for age, Initial residual = 0.011367, Final residual = 0.0010503, No Iterations 9

Time = 60

smoothSolver:  Solving for Ux, Initial residual = 0.0098718, Final residual = 0.000672356, No Iterations 6
smoothSolver:  Solving for Uy, Initial residual = 0.00768358, Final residual = 0.000602895, No Iterations 6
GAMG:  Solving for p, Initial residual = 0.00707748, Final residual = 0.000418549, No Iterations 3
time step continuity errors : sum local = 0.00098129, global = 8.38538e-05, cumulative = 0.0145279
smoothSolver:  Solving for omega, Initial residual = 0.00111412, Final residual = 9.22246e-05, No Iterations 5
smoothSolver:  Solving for k, Initial residual = 0.0158562, Final residual = 0.00126559, No Iterations 6
ExecutionTime = 0.75 s  ClockTime = 1 s

scalarTransport execute: age
smoothSolver:  Solving for age, Initial residual = 0.0109102, Final residual = 0.00100175, No Iterations 9

Time = 61

smoothSolver:  Solving for Ux, Initial residual = 0.00965878, Final residual = 0.000649375, No Iterations 6
smoothSolver:  Solving for Uy, Initial residual = 0.00750178, Final residual = 0.000587224, No Iterations 6
GAMG:  Solving for p, Initial residual = 0.00673495, Final residual = 0.000668916, No Iterations 2
time step continuity errors : sum local = 0.00155505, global = 8.62609e-05, cumulative = 0.0146141
smoothSolver:  Solving for omega, Initial residual = 0.00108921, Final residual = 8.92924e-05, No Iterations 5
smoothSolver:  Solving for k, Initial residual = 0.0154851, Final residual = 0.00123283, No Iterations 6
ExecutionTime = 0.76 s  ClockTime = 1 s

scalarTransport execute: age
smoothSolver:  Solving for age, Initial residual = 0.0104683, Final residual = 0.000977766, No Iterations 9

Time = 62

smoothSolver:  Solving for Ux, Initial residual = 0.0093253, Final residual = 0.000623131, No Iterations 6
smoothSolver:  Solving for Uy, Initial residual = 0.00730046, Final residual = 0.000566158, No Iterations 6
GAMG:  Solving for p, Initial residual = 0.00697062, Final residual = 0.000414411, No Iterations 3
time step continuity errors : sum local = 0.000957142, global = 8.6496e-05, cumulative = 0.0147006
smoothSolver:  Solving for omega, Initial residual = 0.00106612, Final residual = 8.61166e-05, No Iterations 5
smoothSolver:  Solving for k, Initial residual = 0.0151161, Final residual = 0.0011999, No Iterations 6
ExecutionTime = 0.77 s  ClockTime = 1 s

scalarTransport execute: age
smoothSolver:  Solving for age, Initial residual = 0.0100107, Final residual = 0.00092621, No Iterations 9

Time = 63

smoothSolver:  Solving for Ux, Initial residual = 0.00914422, Final residual = 0.00060402, No Iterations 6
smoothSolver:  Solving for Uy, Initial residual = 0.00708179, Final residual = 0.000546775, No Iterations 6
GAMG:  Solving for p, Initial residual = 0.00669759, Final residual = 0.000308161, No Iterations 3
time step continuity errors : sum local = 0.000705741, global = 7.00879e-05, cumulative = 0.0147707
smoothSolver:  Solving for omega, Initial residual = 0.00104563, Final residual = 8.34856e-05, No Iterations 5
smoothSolver:  Solving for k, Initial residual = 0.014736, Final residual = 0.00116634, No Iterations 6
ExecutionTime = 0.78 s  ClockTime = 1 s

scalarTransport execute: age
smoothSolver:  Solving for age, Initial residual = 0.00954529, Final residual = 0.000888297, No Iterations 9

Time = 64

smoothSolver:  Solving for Ux, Initial residual = 0.00885815, Final residual = 0.000582069, No Iterations 6
smoothSolver:  Solving for Uy, Initial residual = 0.00686598, Final residual = 0.000525819, No Iterations 6
GAMG:  Solving for p, Initial residual = 0.00677371, Final residual = 0.000305376, No Iterations 3
time step continuity errors : sum local = 0.000693124, global = 6.52816e-05, cumulative = 0.014836
smoothSolver:  Solving for omega, Initial residual = 0.00101982, Final residual = 8.06508e-05, No Iterations 5
smoothSolver:  Solving for k, Initial residual = 0.0143432, Final residual = 0.0011321, No Iterations 6
ExecutionTime = 0.79 s  ClockTime = 1 s

scalarTransport execute: age
smoothSolver:  Solving for age, Initial residual = 0.00904634, Final residual = 0.000842726, No Iterations 9

Time = 65

smoothSolver:  Solving for Ux, Initial residual = 0.00857523, Final residual = 0.000558079, No Iterations 6
smoothSolver:  Solving for Uy, Initial residual = 0.00659378, Final residual = 0.000500786, No Iterations 6
GAMG:  Solving for p, Initial residual = 0.00675509, Final residual = 0.000318773, No Iterations 3
time step continuity errors : sum local = 0.000719018, global = 6.44292e-05, cumulative = 0.0149004
smoothSolver:  Solving for omega, Initial residual = 0.000997747, Final residual = 7.79699e-05, No Iterations 5
smoothSolver:  Solving for k, Initial residual = 0.0139416, Final residual = 0.00109713, No Iterations 6
ExecutionTime = 0.8 s  ClockTime = 1 s

scalarTransport execute: age
smoothSolver:  Solving for age, Initial residual = 0.0086585, Final residual = 0.000802084, No Iterations 9

Time = 66

smoothSolver:  Solving for Ux, Initial residual = 0.00831835, Final residual = 0.000827079, No Iterations 5
smoothSolver:  Solving for Uy, Initial residual = 0.00630268, Final residual = 0.000474948, No Iterations 6
GAMG:  Solving for p, Initial residual = 0.00667511, Final residual = 0.000319616, No Iterations 3
time step continuity errors : sum local = 0.000716426, global = 6.51513e-05, cumulative = 0.0149656
smoothSolver:  Solving for omega, Initial residual = 0.000990003, Final residual = 7.55093e-05, No Iterations 5
smoothSolver:  Solving for k, Initial residual = 0.0135341, Final residual = 0.00106178, No Iterations 6
ExecutionTime = 0.82 s  ClockTime = 1 s

scalarTransport execute: age
smoothSolver:  Solving for age, Initial residual = 0.00830825, Final residual = 0.000766562, No Iterations 9

Time = 67

smoothSolver:  Solving for Ux, Initial residual = 0.00813004, Final residual = 0.000805786, No Iterations 5
smoothSolver:  Solving for Uy, Initial residual = 0.00599556, Final residual = 0.000447781, No Iterations 6
GAMG:  Solving for p, Initial residual = 0.00668637, Final residual = 0.000316894, No Iterations 3
time step continuity errors : sum local = 0.00070557, global = 6.51278e-05, cumulative = 0.0150307
smoothSolver:  Solving for omega, Initial residual = 0.00097621, Final residual = 7.3047e-05, No Iterations 5
smoothSolver:  Solving for k, Initial residual = 0.0131144, Final residual = 0.00102571, No Iterations 6
ExecutionTime = 0.83 s  ClockTime = 1 s

scalarTransport execute: age
smoothSolver:  Solving for age, Initial residual = 0.00798034, Final residual = 0.000732073, No Iterations 9

Time = 68

smoothSolver:  Solving for Ux, Initial residual = 0.00791128, Final residual = 0.000781141, No Iterations 5
smoothSolver:  Solving for Uy, Initial residual = 0.00571354, Final residual = 0.00042217, No Iterations 6
GAMG:  Solving for p, Initial residual = 0.00672523, Final residual = 0.000314625, No Iterations 3
time step continuity errors : sum local = 0.000695871, global = 6.49506e-05, cumulative = 0.0150956
smoothSolver:  Solving for omega, Initial residual = 0.000956707, Final residual = 7.05754e-05, No Iterations 5
smoothSolver:  Solving for k, Initial residual = 0.0126836, Final residual = 0.000989114, No Iterations 6
ExecutionTime = 0.84 s  ClockTime = 1 s

scalarTransport execute: age
smoothSolver:  Solving for age, Initial residual = 0.00765778, Final residual = 0.000698789, No Iterations 9

Time = 69

smoothSolver:  Solving for Ux, Initial residual = 0.00769218, Final residual = 0.000755718, No Iterations 5
smoothSolver:  Solving for Uy, Initial residual = 0.00543693, Final residual = 0.000396961, No Iterations 6
GAMG:  Solving for p, Initial residual = 0.00676421, Final residual = 0.00031423, No Iterations 3
time step continuity errors : sum local = 0.000690351, global = 6.47486e-05, cumulative = 0.0151604
smoothSolver:  Solving for omega, Initial residual = 0.000936168, Final residual = 6.81731e-05, No Iterations 5
smoothSolver:  Solving for k, Initial residual = 0.0122444, Final residual = 0.000952266, No Iterations 6
ExecutionTime = 0.85 s  ClockTime = 1 s

scalarTransport execute: age
smoothSolver:  Solving for age, Initial residual = 0.00739051, Final residual = 0.000670146, No Iterations 9

Time = 70

smoothSolver:  Solving for Ux, Initial residual = 0.0074715, Final residual = 0.000730996, No Iterations 5
smoothSolver:  Solving for Uy, Initial residual = 0.00516294, Final residual = 0.000372172, No Iterations 6
GAMG:  Solving for p, Initial residual = 0.00686045, Final residual = 0.000678373, No Iterations 2
time step continuity errors : sum local = 0.00147978, global = 9.78698e-05, cumulative = 0.0152583
smoothSolver:  Solving for omega, Initial residual = 0.000906958, Final residual = 6.57636e-05, No Iterations 5
smoothSolver:  Solving for k, Initial residual = 0.011802, Final residual = 0.000915623, No Iterations 6
ExecutionTime = 0.86 s  ClockTime = 1 s

scalarTransport execute: age
smoothSolver:  Solving for age, Initial residual = 0.00708488, Final residual = 0.000647928, No Iterations 9

Time = 71

smoothSolver:  Solving for Ux, Initial residual = 0.00722103, Final residual = 0.000702227, No Iterations 5
smoothSolver:  Solving for Uy, Initial residual = 0.00490283, Final residual = 0.000348456, No Iterations 6
GAMG:  Solving for p, Initial residual = 0.0072909, Final residual = 0.00039861, No Iterations 3
time step continuity errors : sum local = 0.000866149, global = 7.47293e-05, cumulative = 0.015333
smoothSolver:  Solving for omega, Initial residual = 0.000907395, Final residual = 6.37932e-05, No Iterations 5
smoothSolver:  Solving for k, Initial residual = 0.0113582, Final residual = 0.000879208, No Iterations 6
ExecutionTime = 0.88 s  ClockTime = 1 s

scalarTransport execute: age
smoothSolver:  Solving for age, Initial residual = 0.00702127, Final residual = 0.000649155, No Iterations 9

Time = 72

smoothSolver:  Solving for Ux, Initial residual = 0.007083, Final residual = 0.000689516, No Iterations 5
smoothSolver:  Solving for Uy, Initial residual = 0.00464328, Final residual = 0.000324822, No Iterations 6
GAMG:  Solving for p, Initial residual = 0.0070973, Final residual = 0.000670124, No Iterations 2
time step continuity errors : sum local = 0.00144494, global = 0.000114301, cumulative = 0.0154473
smoothSolver:  Solving for omega, Initial residual = 0.000866764, Final residual = 6.12517e-05, No Iterations 5
smoothSolver:  Solving for k, Initial residual = 0.010931, Final residual = 0.000843802, No Iterations 6
ExecutionTime = 0.89 s  ClockTime = 1 s

scalarTransport execute: age
smoothSolver:  Solving for age, Initial residual = 0.00682942, Final residual = 0.000653872, No Iterations 9

Time = 73

smoothSolver:  Solving for Ux, Initial residual = 0.00680926, Final residual = 0.000662867, No Iterations 5
smoothSolver:  Solving for Uy, Initial residual = 0.00445328, Final residual = 0.000307627, No Iterations 6
GAMG:  Solving for p, Initial residual = 0.00738628, Final residual = 0.00039286, No Iterations 3
time step continuity errors : sum local = 0.000844903, global = 6.49958e-05, cumulative = 0.0155123
smoothSolver:  Solving for omega, Initial residual = 0.000868517, Final residual = 5.92547e-05, No Iterations 5
smoothSolver:  Solving for k, Initial residual = 0.0104988, Final residual = 0.000809053, No Iterations 6
ExecutionTime = 0.9 s  ClockTime = 1 s

scalarTransport execute: age
smoothSolver:  Solving for age, Initial residual = 0.00684876, Final residual = 0.000604347, No Iterations 10

Time = 74

smoothSolver:  Solving for Ux, Initial residual = 0.00672423, Final residual = 0.000657112, No Iterations 5
smoothSolver:  Solving for Uy, Initial residual = 0.00425668, Final residual = 0.000292525, No Iterations 6
GAMG:  Solving for p, Initial residual = 0.00727617, Final residual = 0.000664903, No Iterations 2
time step continuity errors : sum local = 0.00141814, global = 0.000108356, cumulative = 0.0156206
smoothSolver:  Solving for omega, Initial residual = 0.00083237, Final residual = 5.69148e-05, No Iterations 5
smoothSolver:  Solving for k, Initial residual = 0.010089, Final residual = 0.00077551, No Iterations 6
ExecutionTime = 0.91 s  ClockTime = 1 s

scalarTransport execute: age
smoothSolver:  Solving for age, Initial residual = 0.00671826, Final residual = 0.000619978, No Iterations 10

Time = 75

smoothSolver:  Solving for Ux, Initial residual = 0.00646677, Final residual = 0.000633688, No Iterations 5
smoothSolver:  Solving for Uy, Initial residual = 0.00408474, Final residual = 0.000280548, No Iterations 6
GAMG:  Solving for p, Initial residual = 0.00736541, Final residual = 0.000381571, No Iterations 3
time step continuity errors : sum local = 0.000813383, global = 5.66781e-05, cumulative = 0.0156773
smoothSolver:  Solving for omega, Initial residual = 0.000824612, Final residual = 5.49518e-05, No Iterations 5
smoothSolver:  Solving for k, Initial residual = 0.00967531, Final residual = 0.000742969, No Iterations 6
ExecutionTime = 0.92 s  ClockTime = 1 s

scalarTransport execute: age
smoothSolver:  Solving for age, Initial residual = 0.00677435, Final residual = 0.000663643, No Iterations 10

Time = 76

smoothSolver:  Solving for Ux, Initial residual = 0.00638885, Final residual = 0.00062612, No Iterations 5
smoothSolver:  Solving for Uy, Initial residual = 0.00390656, Final residual = 0.000265577, No Iterations 6
GAMG:  Solving for p, Initial residual = 0.00717447, Final residual = 0.000652853, No Iterations 2
time step continuity errors : sum local = 0.00138374, global = 0.000105085, cumulative = 0.0157824
smoothSolver:  Solving for omega, Initial residual = 0.000797868, Final residual = 5.2595e-05, No Iterations 5
smoothSolver:  Solving for k, Initial residual = 0.00929611, Final residual = 0.000711838, No Iterations 6
ExecutionTime = 0.94 s  ClockTime = 1 s

scalarTransport execute: age
smoothSolver:  Solving for age, Initial residual = 0.00670901, Final residual = 0.000608098, No Iterations 11

Time = 77

smoothSolver:  Solving for Ux, Initial residual = 0.00616079, Final residual = 0.000606285, No Iterations 5
smoothSolver:  Solving for Uy, Initial residual = 0.00377048, Final residual = 0.000256575, No Iterations 6
GAMG:  Solving for p, Initial residual = 0.00716528, Final residual = 0.000374479, No Iterations 3
time step continuity errors : sum local = 0.000795851, global = 4.52839e-05, cumulative = 0.0158277
smoothSolver:  Solving for omega, Initial residual = 0.00078023, Final residual = 5.04953e-05, No Iterations 5
smoothSolver:  Solving for k, Initial residual = 0.0089161, Final residual = 0.000682045, No Iterations 6
ExecutionTime = 0.95 s  ClockTime = 1 s

scalarTransport execute: age
smoothSolver:  Solving for age, Initial residual = 0.00675588, Final residual = 0.00064702, No Iterations 11

Time = 78

smoothSolver:  Solving for Ux, Initial residual = 0.00611206, Final residual = 0.000602746, No Iterations 5
smoothSolver:  Solving for Uy, Initial residual = 0.00363126, Final residual = 0.000242898, No Iterations 6
GAMG:  Solving for p, Initial residual = 0.00690582, Final residual = 0.00062251, No Iterations 2
time step continuity errors : sum local = 0.00131461, global = 9.77508e-05, cumulative = 0.0159254
smoothSolver:  Solving for omega, Initial residual = 0.000756235, Final residual = 4.81961e-05, No Iterations 5
smoothSolver:  Solving for k, Initial residual = 0.00857915, Final residual = 0.000653571, No Iterations 6
ExecutionTime = 0.96 s  ClockTime = 1 s

scalarTransport execute: age
smoothSolver:  Solving for age, Initial residual = 0.00668458, Final residual = 0.000666601, No Iterations 11

Time = 79

smoothSolver:  Solving for Ux, Initial residual = 0.00589245, Final residual = 0.000585874, No Iterations 5
smoothSolver:  Solving for Uy, Initial residual = 0.00351795, Final residual = 0.000236008, No Iterations 6
GAMG:  Solving for p, Initial residual = 0.00679136, Final residual = 0.000381508, No Iterations 3
time step continuity errors : sum local = 0.000808719, global = 3.68473e-05, cumulative = 0.0159623
smoothSolver:  Solving for omega, Initial residual = 0.000732207, Final residual = 4.59472e-05, No Iterations 5
smoothSolver:  Solving for k, Initial residual = 0.00824526, Final residual = 0.00062657, No Iterations 6
ExecutionTime = 0.96 s  ClockTime = 1 s

scalarTransport execute: age
smoothSolver:  Solving for age, Initial residual = 0.00672339, Final residual = 0.000615218, No Iterations 12

Time = 80

smoothSolver:  Solving for Ux, Initial residual = 0.00584546, Final residual = 0.000581263, No Iterations 5
smoothSolver:  Solving for Uy, Initial residual = 0.0034049, Final residual = 0.000224585, No Iterations 6
GAMG:  Solving for p, Initial residual = 0.00650852, Final residual = 0.000584523, No Iterations 2
time step continuity errors : sum local = 0.00123044, global = 9.56655e-05, cumulative = 0.016058
smoothSolver:  Solving for omega, Initial residual = 0.000707406, Final residual = 4.37894e-05, No Iterations 5
smoothSolver:  Solving for k, Initial residual = 0.00794899, Final residual = 0.000600509, No Iterations 6
ExecutionTime = 0.97 s  ClockTime = 1 s

scalarTransport execute: age
smoothSolver:  Solving for age, Initial residual = 0.00665333, Final residual = 0.000620811, No Iterations 12

Time = 81

smoothSolver:  Solving for Ux, Initial residual = 0.00565724, Final residual = 0.000368536, No Iterations 6
smoothSolver:  Solving for Uy, Initial residual = 0.00330846, Final residual = 0.000219739, No Iterations 6
GAMG:  Solving for p, Initial residual = 0.00633246, Final residual = 0.000352715, No Iterations 3
time step continuity errors : sum local = 0.000745026, global = 2.42405e-05, cumulative = 0.0160822
smoothSolver:  Solving for omega, Initial residual = 0.000682199, Final residual = 6.80599e-05, No Iterations 4
smoothSolver:  Solving for k, Initial residual = 0.00765298, Final residual = 0.000575982, No Iterations 6
ExecutionTime = 1 s  ClockTime = 1 s

scalarTransport execute: age
smoothSolver:  Solving for age, Initial residual = 0.0067087, Final residual = 0.000633554, No Iterations 12

Time = 82

smoothSolver:  Solving for Ux, Initial residual = 0.00556126, Final residual = 0.000555741, No Iterations 5
smoothSolver:  Solving for Uy, Initial residual = 0.00327762, Final residual = 0.000214684, No Iterations 6
GAMG:  Solving for p, Initial residual = 0.0061234, Final residual = 0.00053579, No Iterations 2
time step continuity errors : sum local = 0.00112343, global = 9.20677e-05, cumulative = 0.0161743
smoothSolver:  Solving for omega, Initial residual = 0.000665199, Final residual = 6.57007e-05, No Iterations 4
smoothSolver:  Solving for k, Initial residual = 0.00738519, Final residual = 0.000551946, No Iterations 6
ExecutionTime = 1.01 s  ClockTime = 1 s

scalarTransport execute: age
smoothSolver:  Solving for age, Initial residual = 0.0066357, Final residual = 0.000631016, No Iterations 12

Time = 83

smoothSolver:  Solving for Ux, Initial residual = 0.0054213, Final residual = 0.000354547, No Iterations 6
smoothSolver:  Solving for Uy, Initial residual = 0.00315279, Final residual = 0.000207341, No Iterations 6
GAMG:  Solving for p, Initial residual = 0.00592685, Final residual = 0.000311483, No Iterations 3
time step continuity errors : sum local = 0.000655644, global = 1.20278e-05, cumulative = 0.0161863
smoothSolver:  Solving for omega, Initial residual = 0.000648204, Final residual = 6.3499e-05, No Iterations 4
smoothSolver:  Solving for k, Initial residual = 0.00710789, Final residual = 0.000528964, No Iterations 6
ExecutionTime = 1.02 s  ClockTime = 1 s

scalarTransport execute: age
smoothSolver:  Solving for age, Initial residual = 0.0066817, Final residual = 0.000632118, No Iterations 12

Time = 84

smoothSolver:  Solving for Ux, Initial residual = 0.0052941, Final residual = 0.00034556, No Iterations 6
smoothSolver:  Solving for Uy, Initial residual = 0.00316526, Final residual = 0.000314985, No Iterations 5
GAMG:  Solving for p, Initial residual = 0.00574441, Final residual = 0.000505608, No Iterations 2
time step continuity errors : sum local = 0.00105618, global = 7.94457e-05, cumulative = 0.0162657
smoothSolver:  Solving for omega, Initial residual = 0.000631203, Final residual = 6.12754e-05, No Iterations 4
smoothSolver:  Solving for k, Initial residual = 0.00685865, Final residual = 0.00050626, No Iterations 6
ExecutionTime = 1.03 s  ClockTime = 1 s

scalarTransport execute: age
smoothSolver:  Solving for age, Initial residual = 0.00649733, Final residual = 0.000614092, No Iterations 12

Time = 85

smoothSolver:  Solving for Ux, Initial residual = 0.00511327, Final residual = 0.000334727, No Iterations 6
smoothSolver:  Solving for Uy, Initial residual = 0.00306561, Final residual = 0.0002001, No Iterations 6
GAMG:  Solving for p, Initial residual = 0.00561798, Final residual = 0.000286487, No Iterations 3
time step continuity errors : sum local = 0.000600635, global = 1.12942e-05, cumulative = 0.016277
smoothSolver:  Solving for omega, Initial residual = 0.000616024, Final residual = 5.92027e-05, No Iterations 4
smoothSolver:  Solving for k, Initial residual = 0.00659444, Final residual = 0.000484664, No Iterations 6
ExecutionTime = 1.03 s  ClockTime = 1 s

scalarTransport execute: age
smoothSolver:  Solving for age, Initial residual = 0.0064891, Final residual = 0.000601458, No Iterations 12

Time = 86

smoothSolver:  Solving for Ux, Initial residual = 0.00494842, Final residual = 0.000494214, No Iterations 5
smoothSolver:  Solving for Uy, Initial residual = 0.00305969, Final residual = 0.000302764, No Iterations 5
GAMG:  Solving for p, Initial residual = 0.00548501, Final residual = 0.000454282, No Iterations 2
time step continuity errors : sum local = 0.000946002, global = 9.36855e-05, cumulative = 0.0163707
smoothSolver:  Solving for omega, Initial residual = 0.000601097, Final residual = 5.68177e-05, No Iterations 4
smoothSolver:  Solving for k, Initial residual = 0.00636231, Final residual = 0.000463344, No Iterations 6
ExecutionTime = 1.06 s  ClockTime = 1 s

scalarTransport execute: age
smoothSolver:  Solving for age, Initial residual = 0.00627146, Final residual = 0.000577998, No Iterations 12

Time = 87

smoothSolver:  Solving for Ux, Initial residual = 0.00478845, Final residual = 0.000311938, No Iterations 6
smoothSolver:  Solving for Uy, Initial residual = 0.00294401, Final residual = 0.000292389, No Iterations 5
GAMG:  Solving for p, Initial residual = 0.00539497, Final residual = 0.000276729, No Iterations 3
time step continuity errors : sum local = 0.000577749, global = -2.82501e-06, cumulative = 0.0163679
smoothSolver:  Solving for omega, Initial residual = 0.000590969, Final residual = 5.45978e-05, No Iterations 4
smoothSolver:  Solving for k, Initial residual = 0.00611267, Final residual = 0.000442957, No Iterations 6
ExecutionTime = 1.07 s  ClockTime = 1 s

scalarTransport execute: age
smoothSolver:  Solving for age, Initial residual = 0.00620006, Final residual = 0.000552884, No Iterations 12

Time = 88

smoothSolver:  Solving for Ux, Initial residual = 0.00460983, Final residual = 0.000457267, No Iterations 5
smoothSolver:  Solving for Uy, Initial residual = 0.00302553, Final residual = 0.000298656, No Iterations 5
GAMG:  Solving for p, Initial residual = 0.00532592, Final residual = 0.000424737, No Iterations 2
time step continuity errors : sum local = 0.000879347, global = 8.19725e-05, cumulative = 0.0164499
smoothSolver:  Solving for omega, Initial residual = 0.000577578, Final residual = 5.22968e-05, No Iterations 4
smoothSolver:  Solving for k, Initial residual = 0.00589651, Final residual = 0.000422778, No Iterations 6
ExecutionTime = 1.08 s  ClockTime = 1 s

scalarTransport execute: age
smoothSolver:  Solving for age, Initial residual = 0.00595027, Final residual = 0.000522787, No Iterations 12

Time = 89

smoothSolver:  Solving for Ux, Initial residual = 0.0044372, Final residual = 0.000442084, No Iterations 5
smoothSolver:  Solving for Uy, Initial residual = 0.0028845, Final residual = 0.000284575, No Iterations 5
GAMG:  Solving for p, Initial residual = 0.00524399, Final residual = 0.000492075, No Iterations 2
time step continuity errors : sum local = 0.00102044, global = 0.000150838, cumulative = 0.0166007
smoothSolver:  Solving for omega, Initial residual = 0.000558534, Final residual = 5.01287e-05, No Iterations 4
smoothSolver:  Solving for k, Initial residual = 0.00566334, Final residual = 0.00040336, No Iterations 6
ExecutionTime = 1.09 s  ClockTime = 1 s

scalarTransport execute: age
smoothSolver:  Solving for age, Initial residual = 0.00571722, Final residual = 0.000563118, No Iterations 11

Time = 90

smoothSolver:  Solving for Ux, Initial residual = 0.00423144, Final residual = 0.000416713, No Iterations 5
smoothSolver:  Solving for Uy, Initial residual = 0.00286879, Final residual = 0.000278147, No Iterations 5
GAMG:  Solving for p, Initial residual = 0.00520265, Final residual = 0.000509693, No Iterations 2
time step continuity errors : sum local = 0.00105442, global = 0.000150849, cumulative = 0.0167516
smoothSolver:  Solving for omega, Initial residual = 0.000542185, Final residual = 4.78687e-05, No Iterations 4
smoothSolver:  Solving for k, Initial residual = 0.00544296, Final residual = 0.000384521, No Iterations 6
ExecutionTime = 1.1 s  ClockTime = 1 s

scalarTransport execute: age
smoothSolver:  Solving for age, Initial residual = 0.00558724, Final residual = 0.000538245, No Iterations 11

Time = 91

smoothSolver:  Solving for Ux, Initial residual = 0.00403886, Final residual = 0.000394023, No Iterations 5
smoothSolver:  Solving for Uy, Initial residual = 0.00288299, Final residual = 0.00027998, No Iterations 5
GAMG:  Solving for p, Initial residual = 0.00513222, Final residual = 0.000468203, No Iterations 2
time step continuity errors : sum local = 0.000965581, global = 0.000121938, cumulative = 0.0168735
smoothSolver:  Solving for omega, Initial residual = 0.000530276, Final residual = 4.56095e-05, No Iterations 4
smoothSolver:  Solving for k, Initial residual = 0.00523132, Final residual = 0.000366189, No Iterations 6
ExecutionTime = 1.11 s  ClockTime = 1 s

scalarTransport execute: age
smoothSolver:  Solving for age, Initial residual = 0.00544086, Final residual = 0.000515578, No Iterations 11

Time = 92

smoothSolver:  Solving for Ux, Initial residual = 0.00389008, Final residual = 0.000378458, No Iterations 5
smoothSolver:  Solving for Uy, Initial residual = 0.00286486, Final residual = 0.000277149, No Iterations 5
GAMG:  Solving for p, Initial residual = 0.00508467, Final residual = 0.000421839, No Iterations 2
time step continuity errors : sum local = 0.000866579, global = 0.000132849, cumulative = 0.0170063
smoothSolver:  Solving for omega, Initial residual = 0.000512521, Final residual = 4.33646e-05, No Iterations 4
smoothSolver:  Solving for k, Initial residual = 0.00502678, Final residual = 0.000348357, No Iterations 6
ExecutionTime = 1.13 s  ClockTime = 1 s

scalarTransport execute: age
smoothSolver:  Solving for age, Initial residual = 0.00531327, Final residual = 0.000495519, No Iterations 11

Time = 93

smoothSolver:  Solving for Ux, Initial residual = 0.00369559, Final residual = 0.000357488, No Iterations 5
smoothSolver:  Solving for Uy, Initial residual = 0.00285377, Final residual = 0.000276654, No Iterations 5
GAMG:  Solving for p, Initial residual = 0.00493116, Final residual = 0.000432226, No Iterations 2
time step continuity errors : sum local = 0.000883981, global = 0.000138802, cumulative = 0.0171451
smoothSolver:  Solving for omega, Initial residual = 0.000501879, Final residual = 4.13048e-05, No Iterations 4
smoothSolver:  Solving for k, Initial residual = 0.00482002, Final residual = 0.000331065, No Iterations 6
ExecutionTime = 1.14 s  ClockTime = 1 s

scalarTransport execute: age
smoothSolver:  Solving for age, Initial residual = 0.00510741, Final residual = 0.000477922, No Iterations 11

Time = 94

smoothSolver:  Solving for Ux, Initial residual = 0.00351051, Final residual = 0.000335606, No Iterations 5
smoothSolver:  Solving for Uy, Initial residual = 0.00282662, Final residual = 0.000271084, No Iterations 5
GAMG:  Solving for p, Initial residual = 0.00488246, Final residual = 0.000432829, No Iterations 2
time step continuity errors : sum local = 0.000882226, global = 0.000134829, cumulative = 0.01728
smoothSolver:  Solving for omega, Initial residual = 0.00048721, Final residual = 3.93718e-05, No Iterations 4
smoothSolver:  Solving for k, Initial residual = 0.00462305, Final residual = 0.000314408, No Iterations 6
ExecutionTime = 1.15 s  ClockTime = 1 s

scalarTransport execute: age
smoothSolver:  Solving for age, Initial residual = 0.00495261, Final residual = 0.00046482, No Iterations 11

Time = 95

smoothSolver:  Solving for Ux, Initial residual = 0.00332601, Final residual = 0.000313467, No Iterations 5
smoothSolver:  Solving for Uy, Initial residual = 0.00281292, Final residual = 0.000269239, No Iterations 5
GAMG:  Solving for p, Initial residual = 0.00476354, Final residual = 0.000411189, No Iterations 2
time step continuity errors : sum local = 0.000834954, global = 0.000131299, cumulative = 0.0174113
smoothSolver:  Solving for omega, Initial residual = 0.000476, Final residual = 3.75753e-05, No Iterations 4
smoothSolver:  Solving for k, Initial residual = 0.00443104, Final residual = 0.000298328, No Iterations 6
ExecutionTime = 1.16 s  ClockTime = 1 s

scalarTransport execute: age
smoothSolver:  Solving for age, Initial residual = 0.00477721, Final residual = 0.000453353, No Iterations 11

Time = 96

smoothSolver:  Solving for Ux, Initial residual = 0.00315635, Final residual = 0.000293711, No Iterations 5
[...]

Time = 591

smoothSolver:  Solving for Ux, Initial residual = 8.57608e-07, Final residual = 5.52949e-08, No Iterations 5
smoothSolver:  Solving for Uy, Initial residual = 6.12817e-07, Final residual = 5.33007e-08, No Iterations 5
GAMG:  Solving for p, Initial residual = 1.64246e-06, Final residual = 1.56405e-07, No Iterations 2
time step continuity errors : sum local = 3.77012e-07, global = 2.91961e-08, cumulative = 0.0227418
smoothSolver:  Solving for omega, Initial residual = 8.39837e-08, Final residual = 9.72375e-09, No Iterations 3
smoothSolver:  Solving for k, Initial residual = 1.20049e-07, Final residual = 8.25291e-09, No Iterations 5
ExecutionTime = 6.89 s  ClockTime = 7 s

scalarTransport execute: age
smoothSolver:  Solving for age, Initial residual = 0.000331007, Final residual = 3.2485e-05, No Iterations 14

Time = 592

smoothSolver:  Solving for Ux, Initial residual = 8.39223e-07, Final residual = 5.4102e-08, No Iterations 5
smoothSolver:  Solving for Uy, Initial residual = 5.99781e-07, Final residual = 5.21735e-08, No Iterations 5
GAMG:  Solving for p, Initial residual = 1.60746e-06, Final residual = 1.531e-07, No Iterations 2
time step continuity errors : sum local = 3.69047e-07, global = 2.85169e-08, cumulative = 0.0227418
smoothSolver:  Solving for omega, Initial residual = 8.28028e-08, Final residual = 9.61777e-09, No Iterations 3
smoothSolver:  Solving for k, Initial residual = 1.17733e-07, Final residual = 8.10004e-09, No Iterations 5
ExecutionTime = 6.91 s  ClockTime = 7 s

scalarTransport execute: age
smoothSolver:  Solving for age, Initial residual = 0.00033043, Final residual = 3.2427e-05, No Iterations 14

Time = 593

smoothSolver:  Solving for Ux, Initial residual = 8.21227e-07, Final residual = 5.2935e-08, No Iterations 5
smoothSolver:  Solving for Uy, Initial residual = 5.87019e-07, Final residual = 5.10692e-08, No Iterations 5
GAMG:  Solving for p, Initial residual = 1.57314e-06, Final residual = 1.49855e-07, No Iterations 2
time step continuity errors : sum local = 3.61224e-07, global = 2.78522e-08, cumulative = 0.0227418
smoothSolver:  Solving for omega, Initial residual = 8.14739e-08, Final residual = 9.48412e-09, No Iterations 3
smoothSolver:  Solving for k, Initial residual = 1.15434e-07, Final residual = 7.94855e-09, No Iterations 5
ExecutionTime = 6.92 s  ClockTime = 7 s

scalarTransport execute: age
smoothSolver:  Solving for age, Initial residual = 0.000329855, Final residual = 3.23692e-05, No Iterations 14

Time = 594

smoothSolver:  Solving for Ux, Initial residual = 8.03607e-07, Final residual = 5.17925e-08, No Iterations 5
smoothSolver:  Solving for Uy, Initial residual = 5.74526e-07, Final residual = 4.99875e-08, No Iterations 5
GAMG:  Solving for p, Initial residual = 1.5395e-06, Final residual = 1.46671e-07, No Iterations 2
time step continuity errors : sum local = 3.5355e-07, global = 2.72018e-08, cumulative = 0.0227418
smoothSolver:  Solving for omega, Initial residual = 8.00558e-08, Final residual = 9.33371e-09, No Iterations 3
smoothSolver:  Solving for k, Initial residual = 1.13164e-07, Final residual = 7.79902e-09, No Iterations 5
ExecutionTime = 6.93 s  ClockTime = 7 s

scalarTransport execute: age
smoothSolver:  Solving for age, Initial residual = 0.000329282, Final residual = 3.23118e-05, No Iterations 14

Time = 595

smoothSolver:  Solving for Ux, Initial residual = 7.86344e-07, Final residual = 5.06734e-08, No Iterations 5
smoothSolver:  Solving for Uy, Initial residual = 5.62289e-07, Final residual = 4.89276e-08, No Iterations 5
GAMG:  Solving for p, Initial residual = 1.50648e-06, Final residual = 1.43552e-07, No Iterations 2
time step continuity errors : sum local = 3.46032e-07, global = 2.65654e-08, cumulative = 0.0227419
smoothSolver:  Solving for omega, Initial residual = 7.85883e-08, Final residual = 9.17354e-09, No Iterations 3
smoothSolver:  Solving for k, Initial residual = 1.10928e-07, Final residual = 7.65173e-09, No Iterations 5
ExecutionTime = 6.94 s  ClockTime = 7 s

scalarTransport execute: age
smoothSolver:  Solving for age, Initial residual = 0.000328712, Final residual = 3.22547e-05, No Iterations 14

Time = 596

smoothSolver:  Solving for Ux, Initial residual = 7.69427e-07, Final residual = 4.95765e-08, No Iterations 5
smoothSolver:  Solving for Uy, Initial residual = 5.50301e-07, Final residual = 4.78893e-08, No Iterations 5
GAMG:  Solving for p, Initial residual = 1.47423e-06, Final residual = 1.405e-07, No Iterations 2
time step continuity errors : sum local = 3.38675e-07, global = 2.59431e-08, cumulative = 0.0227419
smoothSolver:  Solving for omega, Initial residual = 7.70966e-08, Final residual = 9.00803e-09, No Iterations 3
smoothSolver:  Solving for k, Initial residual = 1.08731e-07, Final residual = 7.50677e-09, No Iterations 5
ExecutionTime = 6.95 s  ClockTime = 7 s

scalarTransport execute: age
smoothSolver:  Solving for age, Initial residual = 0.000328143, Final residual = 3.21979e-05, No Iterations 14

Time = 597

smoothSolver:  Solving for Ux, Initial residual = 7.52843e-07, Final residual = 4.85011e-08, No Iterations 5
smoothSolver:  Solving for Uy, Initial residual = 5.38555e-07, Final residual = 4.68719e-08, No Iterations 5
GAMG:  Solving for p, Initial residual = 1.44264e-06, Final residual = 1.37515e-07, No Iterations 2
time step continuity errors : sum local = 3.31479e-07, global = 2.53346e-08, cumulative = 0.0227419
smoothSolver:  Solving for omega, Initial residual = 7.55968e-08, Final residual = 8.84001e-09, No Iterations 3
smoothSolver:  Solving for k, Initial residual = 1.06573e-07, Final residual = 7.36419e-09, No Iterations 5
ExecutionTime = 6.96 s  ClockTime = 7 s

scalarTransport execute: age
smoothSolver:  Solving for age, Initial residual = 0.000327576, Final residual = 3.21414e-05, No Iterations 14

Time = 598

smoothSolver:  Solving for Ux, Initial residual = 7.36586e-07, Final residual = 4.74466e-08, No Iterations 5
smoothSolver:  Solving for Uy, Initial residual = 5.27046e-07, Final residual = 4.58754e-08, No Iterations 5
GAMG:  Solving for p, Initial residual = 1.41176e-06, Final residual = 1.34595e-07, No Iterations 2
time step continuity errors : sum local = 3.24441e-07, global = 2.47397e-08, cumulative = 0.0227419
smoothSolver:  Solving for omega, Initial residual = 7.40994e-08, Final residual = 8.67128e-09, No Iterations 3
smoothSolver:  Solving for k, Initial residual = 1.04455e-07, Final residual = 7.22397e-09, No Iterations 5
ExecutionTime = 6.98 s  ClockTime = 7 s

scalarTransport execute: age
smoothSolver:  Solving for age, Initial residual = 0.00032701, Final residual = 3.20853e-05, No Iterations 14

Time = 599

smoothSolver:  Solving for Ux, Initial residual = 7.20652e-07, Final residual = 4.64126e-08, No Iterations 5
smoothSolver:  Solving for Uy, Initial residual = 5.15773e-07, Final residual = 4.48993e-08, No Iterations 5
GAMG:  Solving for p, Initial residual = 1.38159e-06, Final residual = 1.31739e-07, No Iterations 2
time step continuity errors : sum local = 3.17558e-07, global = 2.41582e-08, cumulative = 0.022742
smoothSolver:  Solving for omega, Initial residual = 7.26117e-08, Final residual = 8.50293e-09, No Iterations 3
smoothSolver:  Solving for k, Initial residual = 1.02377e-07, Final residual = 7.08607e-09, No Iterations 5
ExecutionTime = 6.99 s  ClockTime = 7 s

scalarTransport execute: age
smoothSolver:  Solving for age, Initial residual = 0.000326446, Final residual = 3.20294e-05, No Iterations 14

Time = 600

smoothSolver:  Solving for Ux, Initial residual = 7.05036e-07, Final residual = 4.53992e-08, No Iterations 5
smoothSolver:  Solving for Uy, Initial residual = 5.04732e-07, Final residual = 4.39435e-08, No Iterations 5
GAMG:  Solving for p, Initial residual = 1.35206e-06, Final residual = 1.28947e-07, No Iterations 2
time step continuity errors : sum local = 3.10826e-07, global = 2.35899e-08, cumulative = 0.022742
smoothSolver:  Solving for omega, Initial residual = 7.11381e-08, Final residual = 8.33564e-09, No Iterations 3
smoothSolver:  Solving for k, Initial residual = 1.00339e-07, Final residual = 6.95047e-09, No Iterations 5
ExecutionTime = 7 s  ClockTime = 7 s

scalarTransport execute: age
smoothSolver:  Solving for age, Initial residual = 0.000325884, Final residual = 3.19736e-05, No Iterations 14

Time = 601

smoothSolver:  Solving for Ux, Initial residual = 6.89738e-07, Final residual = 4.44063e-08, No Iterations 5
smoothSolver:  Solving for Uy, Initial residual = 4.9392e-07, Final residual = 4.30074e-08, No Iterations 5
GAMG:  Solving for p, Initial residual = 1.32321e-06, Final residual = 1.26215e-07, No Iterations 2
time step continuity errors : sum local = 3.04241e-07, global = 2.30345e-08, cumulative = 0.022742
smoothSolver:  Solving for omega, Initial residual = 6.96818e-08, Final residual = 8.16985e-09, No Iterations 3
smoothSolver:  Solving for k, Initial residual = 9.83402e-08, Final residual = 6.81713e-09, No Iterations 5
ExecutionTime = 7.01 s  ClockTime = 7 s

scalarTransport execute: age
smoothSolver:  Solving for age, Initial residual = 0.000325323, Final residual = 3.1918e-05, No Iterations 14

Time = 602

smoothSolver:  Solving for Ux, Initial residual = 6.74754e-07, Final residual = 4.34339e-08, No Iterations 5
smoothSolver:  Solving for Uy, Initial residual = 4.83332e-07, Final residual = 4.20906e-08, No Iterations 5
GAMG:  Solving for p, Initial residual = 1.29499e-06, Final residual = 1.23542e-07, No Iterations 2
time step continuity errors : sum local = 2.97799e-07, global = 2.2492e-08, cumulative = 0.022742
smoothSolver:  Solving for omega, Initial residual = 6.82451e-08, Final residual = 8.00587e-09, No Iterations 3
smoothSolver:  Solving for k, Initial residual = 9.63795e-08, Final residual = 6.68602e-09, No Iterations 5
ExecutionTime = 7.02 s  ClockTime = 7 s

scalarTransport execute: age
smoothSolver:  Solving for age, Initial residual = 0.000324763, Final residual = 3.18626e-05, No Iterations 14

Time = 603

smoothSolver:  Solving for Ux, Initial residual = 6.6008e-07, Final residual = 4.24819e-08, No Iterations 5
smoothSolver:  Solving for Uy, Initial residual = 4.72961e-07, Final residual = 4.11926e-08, No Iterations 5
GAMG:  Solving for p, Initial residual = 1.26735e-06, Final residual = 1.20926e-07, No Iterations 2
time step continuity errors : sum local = 2.91493e-07, global = 2.19619e-08, cumulative = 0.0227421
smoothSolver:  Solving for omega, Initial residual = 6.68294e-08, Final residual = 7.84388e-09, No Iterations 3
smoothSolver:  Solving for k, Initial residual = 9.44565e-08, Final residual = 6.55713e-09, No Iterations 5
ExecutionTime = 7.03 s  ClockTime = 7 s

scalarTransport execute: age
smoothSolver:  Solving for age, Initial residual = 0.000324206, Final residual = 3.18074e-05, No Iterations 14

Time = 604

smoothSolver:  Solving for Ux, Initial residual = 6.45715e-07, Final residual = 4.15503e-08, No Iterations 5
smoothSolver:  Solving for Uy, Initial residual = 4.62802e-07, Final residual = 4.03129e-08, No Iterations 5
GAMG:  Solving for p, Initial residual = 1.24031e-06, Final residual = 1.18364e-07, No Iterations 2
time step continuity errors : sum local = 2.85318e-07, global = 2.14441e-08, cumulative = 0.0227421
smoothSolver:  Solving for omega, Initial residual = 6.54362e-08, Final residual = 7.68403e-09, No Iterations 3
smoothSolver:  Solving for k, Initial residual = 9.25705e-08, Final residual = 6.43043e-09, No Iterations 5
ExecutionTime = 7.05 s  ClockTime = 7 s

scalarTransport execute: age
smoothSolver:  Solving for age, Initial residual = 0.00032365, Final residual = 3.17523e-05, No Iterations 14

Time = 605

smoothSolver:  Solving for Ux, Initial residual = 6.31653e-07, Final residual = 4.06387e-08, No Iterations 5
smoothSolver:  Solving for Uy, Initial residual = 4.52847e-07, Final residual = 3.94508e-08, No Iterations 5
GAMG:  Solving for p, Initial residual = 1.2138e-06, Final residual = 1.15855e-07, No Iterations 2
time step continuity errors : sum local = 2.79269e-07, global = 2.09382e-08, cumulative = 0.0227421
smoothSolver:  Solving for omega, Initial residual = 6.40663e-08, Final residual = 7.52645e-09, No Iterations 3
smoothSolver:  Solving for k, Initial residual = 9.07208e-08, Final residual = 6.30588e-09, No Iterations 5
ExecutionTime = 7.06 s  ClockTime = 7 s

scalarTransport execute: age
smoothSolver:  Solving for age, Initial residual = 0.000323095, Final residual = 3.16975e-05, No Iterations 14

Time = 606

smoothSolver:  Solving for Ux, Initial residual = 6.17888e-07, Final residual = 3.97469e-08, No Iterations 5
smoothSolver:  Solving for Uy, Initial residual = 4.43091e-07, Final residual = 3.8606e-08, No Iterations 5
GAMG:  Solving for p, Initial residual = 1.18782e-06, Final residual = 1.13396e-07, No Iterations 2
time step continuity errors : sum local = 2.73342e-07, global = 2.04438e-08, cumulative = 0.0227421
smoothSolver:  Solving for omega, Initial residual = 6.272e-08, Final residual = 7.37124e-09, No Iterations 3
smoothSolver:  Solving for k, Initial residual = 8.89065e-08, Final residual = 6.18346e-09, No Iterations 5
ExecutionTime = 7.07 s  ClockTime = 7 s

scalarTransport execute: age
smoothSolver:  Solving for age, Initial residual = 0.000322543, Final residual = 3.16429e-05, No Iterations 14

Time = 607

smoothSolver:  Solving for Ux, Initial residual = 6.04415e-07, Final residual = 3.88745e-08, No Iterations 5
smoothSolver:  Solving for Uy, Initial residual = 4.3353e-07, Final residual = 3.77778e-08, No Iterations 5
GAMG:  Solving for p, Initial residual = 1.16235e-06, Final residual = 1.10985e-07, No Iterations 2
time step continuity errors : sum local = 2.67531e-07, global = 1.99605e-08, cumulative = 0.0227421
smoothSolver:  Solving for omega, Initial residual = 6.1398e-08, Final residual = 7.21849e-09, No Iterations 3
smoothSolver:  Solving for k, Initial residual = 8.7127e-08, Final residual = 9.97926e-09, No Iterations 4
ExecutionTime = 7.08 s  ClockTime = 7 s

scalarTransport execute: age
smoothSolver:  Solving for age, Initial residual = 0.000321991, Final residual = 3.15886e-05, No Iterations 14

Time = 608

smoothSolver:  Solving for Ux, Initial residual = 5.91658e-07, Final residual = 3.80632e-08, No Iterations 5
smoothSolver:  Solving for Uy, Initial residual = 4.23938e-07, Final residual = 3.69393e-08, No Iterations 5
GAMG:  Solving for p, Initial residual = 1.13698e-06, Final residual = 1.0862e-07, No Iterations 2
time step continuity errors : sum local = 2.61831e-07, global = 1.94849e-08, cumulative = 0.0227422
smoothSolver:  Solving for omega, Initial residual = 5.99603e-08, Final residual = 7.05393e-09, No Iterations 3
smoothSolver:  Solving for k, Initial residual = 8.56576e-08, Final residual = 9.82028e-09, No Iterations 4
ExecutionTime = 7.09 s  ClockTime = 7 s

scalarTransport execute: age
smoothSolver:  Solving for age, Initial residual = 0.000321441, Final residual = 3.15348e-05, No Iterations 14

Time = 609

smoothSolver:  Solving for Ux, Initial residual = 5.79047e-07, Final residual = 3.72618e-08, No Iterations 5
smoothSolver:  Solving for Uy, Initial residual = 4.14749e-07, Final residual = 3.61464e-08, No Iterations 5
GAMG:  Solving for p, Initial residual = 1.11237e-06, Final residual = 1.06294e-07, No Iterations 2
time step continuity errors : sum local = 2.56223e-07, global = 1.90232e-08, cumulative = 0.0227422
smoothSolver:  Solving for omega, Initial residual = 5.86464e-08, Final residual = 6.90021e-09, No Iterations 3
smoothSolver:  Solving for k, Initial residual = 8.41915e-08, Final residual = 9.66036e-09, No Iterations 4
ExecutionTime = 7.1 s  ClockTime = 7 s

scalarTransport execute: age
smoothSolver:  Solving for age, Initial residual = 0.000320892, Final residual = 3.14812e-05, No Iterations 14

Time = 610

smoothSolver:  Solving for Ux, Initial residual = 5.66687e-07, Final residual = 3.64749e-08, No Iterations 5
smoothSolver:  Solving for Uy, Initial residual = 4.05835e-07, Final residual = 3.53777e-08, No Iterations 5
GAMG:  Solving for p, Initial residual = 1.0885e-06, Final residual = 1.04025e-07, No Iterations 2
time step continuity errors : sum local = 2.50754e-07, global = 1.85724e-08, cumulative = 0.0227422
smoothSolver:  Solving for omega, Initial residual = 5.7376e-08, Final residual = 6.75272e-09, No Iterations 3
smoothSolver:  Solving for k, Initial residual = 8.27277e-08, Final residual = 9.49933e-09, No Iterations 4
ExecutionTime = 7.11 s  ClockTime = 7 s

scalarTransport execute: age
smoothSolver:  Solving for age, Initial residual = 0.000320344, Final residual = 3.1428e-05, No Iterations 14

Time = 611

smoothSolver:  Solving for Ux, Initial residual = 5.54574e-07, Final residual = 3.57023e-08, No Iterations 5
smoothSolver:  Solving for Uy, Initial residual = 3.97135e-07, Final residual = 3.46272e-08, No Iterations 5
GAMG:  Solving for p, Initial residual = 1.06518e-06, Final residual = 1.0182e-07, No Iterations 2
time step continuity errors : sum local = 2.4544e-07, global = 1.8134e-08, cumulative = 0.0227422
smoothSolver:  Solving for omega, Initial residual = 5.61419e-08, Final residual = 6.60964e-09, No Iterations 3
smoothSolver:  Solving for k, Initial residual = 8.12668e-08, Final residual = 9.33738e-09, No Iterations 4
ExecutionTime = 7.13 s  ClockTime = 7 s

scalarTransport execute: age
smoothSolver:  Solving for age, Initial residual = 0.000319796, Final residual = 3.13751e-05, No Iterations 14

Time = 612

smoothSolver:  Solving for Ux, Initial residual = 5.42685e-07, Final residual = 3.49428e-08, No Iterations 5
smoothSolver:  Solving for Uy, Initial residual = 3.88621e-07, Final residual = 3.38929e-08, No Iterations 5
GAMG:  Solving for p, Initial residual = 1.04241e-06, Final residual = 9.9673e-08, No Iterations 2
time step continuity errors : sum local = 2.40264e-07, global = 1.77073e-08, cumulative = 0.0227422
smoothSolver:  Solving for omega, Initial residual = 5.49408e-08, Final residual = 6.47001e-09, No Iterations 3
smoothSolver:  Solving for k, Initial residual = 7.98107e-08, Final residual = 9.17496e-09, No Iterations 4
ExecutionTime = 7.14 s  ClockTime = 7 s

scalarTransport execute: age
smoothSolver:  Solving for age, Initial residual = 0.000319248, Final residual = 3.13223e-05, No Iterations 14

Time = 613

smoothSolver:  Solving for Ux, Initial residual = 5.31012e-07, Final residual = 3.41958e-08, No Iterations 5
smoothSolver:  Solving for Uy, Initial residual = 3.80278e-07, Final residual = 3.3174e-08, No Iterations 5
GAMG:  Solving for p, Initial residual = 1.02006e-06, Final residual = 9.75707e-08, No Iterations 2
time step continuity errors : sum local = 2.35196e-07, global = 1.72912e-08, cumulative = 0.0227422
smoothSolver:  Solving for omega, Initial residual = 5.37666e-08, Final residual = 6.33337e-09, No Iterations 3
smoothSolver:  Solving for k, Initial residual = 7.83611e-08, Final residual = 9.01258e-09, No Iterations 4
ExecutionTime = 7.15 s  ClockTime = 7 s

scalarTransport execute: age
smoothSolver:  Solving for age, Initial residual = 0.000318701, Final residual = 3.12697e-05, No Iterations 14

Time = 614

smoothSolver:  Solving for Ux, Initial residual = 5.19555e-07, Final residual = 3.34613e-08, No Iterations 5
smoothSolver:  Solving for Uy, Initial residual = 3.72098e-07, Final residual = 3.24696e-08, No Iterations 5
GAMG:  Solving for p, Initial residual = 9.98049e-07, Final residual = 9.5505e-08, No Iterations 2
time step continuity errors : sum local = 2.30217e-07, global = 1.68837e-08, cumulative = 0.0227423
smoothSolver:  Solving for omega, Initial residual = 5.26172e-08, Final residual = 6.19944e-09, No Iterations 3
smoothSolver:  Solving for k, Initial residual = 7.69206e-08, Final residual = 8.85073e-09, No Iterations 4
ExecutionTime = 7.16 s  ClockTime = 7 s


SIMPLE solution converged in 614 iterations

scalarTransport execute: age
smoothSolver:  Solving for age, Initial residual = 0.000318155, Final residual = 3.12172e-05, No Iterations 14

End

