/*---------------------------------------------------------------------------*\
| =========                 |                                                 |
| \\      /  F ield         | OpenFOAM: The Open Source CFD Toolbox           |
|  \\    /   O peration     | Version:  v2012                                 |
|   \\  /    A nd           | Website:  www.openfoam.com                      |
|    \\/     M anipulation  |                                                 |
\*---------------------------------------------------------------------------*/
Build  : _7bdb509494-20201222 OPENFOAM=2012
Arch   : "LSB;label=32;scalar=64"
Exec   : simpleFoam
Date   : Feb 24 2023
Time   : 02:05:54
Host   : johnsDesktop
PID    : 21820
I/O    : uncollated
Case   : /home/john/of_runs/cases/dbl_0_58_49_6
nProcs : 1
trapFpe: Floating point exception trapping enabled (FOAM_SIGFPE).
fileModificationChecking : Monitoring run-time modified files using timeStampMaster (fileModificationSkew 5, maxFileModificationPolls 20)
allowSystemOperations : Allowing user-supplied system call operations

// * * * * * * * * * * * * * * * * * * * * * * * * * * * * * * * * * * * * * //
Create time

Create mesh for time = 0


SIMPLE: convergence criteria
    field p	 tolerance 1e-06
    field U	 tolerance 1e-06
    field "(k|epsilon|omega|f|v2|age)"	 tolerance 1e-05

Reading field p

Reading field U

Reading/calculating face flux field phi

Selecting incompressible transport model Newtonian
Selecting turbulence model type RAS
Selecting RAS turbulence model kOmegaSST
Selecting patchDistMethod meshWave
RAS
{
    RASModel        kOmegaSST;
    turbulence      on;
    printCoeffs     on;
    alphaK1         0.85;
    alphaK2         1;
    alphaOmega1     0.5;
    alphaOmega2     0.856;
    gamma1          0.555556;
    gamma2          0.44;
    beta1           0.075;
    beta2           0.0828;
    betaStar        0.09;
    a1              0.31;
    b1              1;
    c1              10;
    F3              false;
    decayControl    false;
    kInf            0;
    omegaInf        0;
}

No MRF models present

No finite volume options present

Starting time loop

Selecting finite volume options type scalarSemiImplicitSource
    Source: unitySource
    - selecting all cells
    - selected 6502 cell(s) with volume 0.03142
Time = 1

smoothSolver:  Solving for Ux, Initial residual = 0, Final residual = 0, No Iterations 0
smoothSolver:  Solving for Uy, Initial residual = 1, Final residual = 0.0904547, No Iterations 1
GAMG:  Solving for p, Initial residual = 1, Final residual = 0.0568736, No Iterations 7
time step continuity errors : sum local = 0.00362022, global = -0.000387514, cumulative = -0.000387514
smoothSolver:  Solving for omega, Initial residual = 0.0234593, Final residual = 0.00126393, No Iterations 3
smoothSolver:  Solving for k, Initial residual = 1, Final residual = 0.0821074, No Iterations 1
ExecutionTime = 0.05 s  ClockTime = 0 s

scalarTransport execute: age
smoothSolver:  Solving for age, Initial residual = 1, Final residual = 0.0990669, No Iterations 6

Time = 2

smoothSolver:  Solving for Ux, Initial residual = 0.0243248, Final residual = 0.00224589, No Iterations 5
smoothSolver:  Solving for Uy, Initial residual = 0.341977, Final residual = 0.0251563, No Iterations 4
GAMG:  Solving for p, Initial residual = 0.0460143, Final residual = 0.00169823, No Iterations 4
time step continuity errors : sum local = 0.0146925, global = 0.00115136, cumulative = 0.000763846
smoothSolver:  Solving for omega, Initial residual = 0.0498734, Final residual = 0.00208497, No Iterations 1
smoothSolver:  Solving for k, Initial residual = 0.177851, Final residual = 0.01005, No Iterations 3
ExecutionTime = 0.07 s  ClockTime = 0 s

scalarTransport execute: age
smoothSolver:  Solving for age, Initial residual = 0.513535, Final residual = 0.0499796, No Iterations 7

Time = 3

smoothSolver:  Solving for Ux, Initial residual = 0.153886, Final residual = 0.010633, No Iterations 5
smoothSolver:  Solving for Uy, Initial residual = 0.108896, Final residual = 0.00977322, No Iterations 4
GAMG:  Solving for p, Initial residual = 0.0339263, Final residual = 0.00297553, No Iterations 3
time step continuity errors : sum local = 0.0135403, global = 0.00110874, cumulative = 0.00187259
smoothSolver:  Solving for omega, Initial residual = 0.00766089, Final residual = 0.000713656, No Iterations 1
smoothSolver:  Solving for k, Initial residual = 0.0906578, Final residual = 0.00819501, No Iterations 3
ExecutionTime = 0.08 s  ClockTime = 0 s

scalarTransport execute: age
smoothSolver:  Solving for age, Initial residual = 0.262893, Final residual = 0.0252659, No Iterations 8

Time = 4

smoothSolver:  Solving for Ux, Initial residual = 0.0730174, Final residual = 0.00709895, No Iterations 4
smoothSolver:  Solving for Uy, Initial residual = 0.0592151, Final residual = 0.00457826, No Iterations 4
GAMG:  Solving for p, Initial residual = 0.0364287, Final residual = 0.00212171, No Iterations 3
time step continuity errors : sum local = 0.00696421, global = 0.000371305, cumulative = 0.00224389
smoothSolver:  Solving for omega, Initial residual = 0.0039687, Final residual = 0.000142047, No Iterations 2
smoothSolver:  Solving for k, Initial residual = 0.0579315, Final residual = 0.00414331, No Iterations 4
ExecutionTime = 0.09 s  ClockTime = 0 s

scalarTransport execute: age
smoothSolver:  Solving for age, Initial residual = 0.123621, Final residual = 0.0113891, No Iterations 9

Time = 5

smoothSolver:  Solving for Ux, Initial residual = 0.0121208, Final residual = 0.0010382, No Iterations 4
smoothSolver:  Solving for Uy, Initial residual = 0.0604188, Final residual = 0.00521543, No Iterations 3
GAMG:  Solving for p, Initial residual = 0.0340326, Final residual = 0.00226997, No Iterations 2
time step continuity errors : sum local = 0.0064661, global = 0.000453033, cumulative = 0.00269693
smoothSolver:  Solving for omega, Initial residual = 0.00145566, Final residual = 6.85267e-05, No Iterations 2
smoothSolver:  Solving for k, Initial residual = 0.0440051, Final residual = 0.00374578, No Iterations 4
ExecutionTime = 0.1 s  ClockTime = 0 s

scalarTransport execute: age
smoothSolver:  Solving for age, Initial residual = 0.0793638, Final residual = 0.00703205, No Iterations 10

Time = 6

smoothSolver:  Solving for Ux, Initial residual = 0.039448, Final residual = 0.00281003, No Iterations 5
smoothSolver:  Solving for Uy, Initial residual = 0.0314151, Final residual = 0.00311118, No Iterations 4
GAMG:  Solving for p, Initial residual = 0.028885, Final residual = 0.00207256, No Iterations 2
time step continuity errors : sum local = 0.00588939, global = 0.000725822, cumulative = 0.00342275
smoothSolver:  Solving for omega, Initial residual = 0.000913817, Final residual = 5.5451e-05, No Iterations 2
smoothSolver:  Solving for k, Initial residual = 0.03635, Final residual = 0.0034809, No Iterations 4
ExecutionTime = 0.11 s  ClockTime = 0 s

scalarTransport execute: age
smoothSolver:  Solving for age, Initial residual = 0.0597916, Final residual = 0.00554791, No Iterations 10

Time = 7

smoothSolver:  Solving for Ux, Initial residual = 0.0361998, Final residual = 0.00269767, No Iterations 5
smoothSolver:  Solving for Uy, Initial residual = 0.0281964, Final residual = 0.00183078, No Iterations 5
GAMG:  Solving for p, Initial residual = 0.024714, Final residual = 0.00187462, No Iterations 2
time step continuity errors : sum local = 0.00525774, global = 0.000626085, cumulative = 0.00404883
smoothSolver:  Solving for omega, Initial residual = 0.000464835, Final residual = 3.67008e-05, No Iterations 2
smoothSolver:  Solving for k, Initial residual = 0.0315022, Final residual = 0.00189525, No Iterations 5
ExecutionTime = 0.13 s  ClockTime = 0 s

scalarTransport execute: age
smoothSolver:  Solving for age, Initial residual = 0.0488517, Final residual = 0.00469765, No Iterations 10

Time = 8

smoothSolver:  Solving for Ux, Initial residual = 0.0331756, Final residual = 0.00253653, No Iterations 5
smoothSolver:  Solving for Uy, Initial residual = 0.025608, Final residual = 0.00176075, No Iterations 5
GAMG:  Solving for p, Initial residual = 0.0229798, Final residual = 0.00169838, No Iterations 2
time step continuity errors : sum local = 0.00471566, global = 0.000541411, cumulative = 0.00459025
smoothSolver:  Solving for omega, Initial residual = 0.00028305, Final residual = 1.59379e-05, No Iterations 3
smoothSolver:  Solving for k, Initial residual = 0.0278495, Final residual = 0.00177194, No Iterations 5
ExecutionTime = 0.14 s  ClockTime = 0 s

scalarTransport execute: age
smoothSolver:  Solving for age, Initial residual = 0.0424091, Final residual = 0.00423078, No Iterations 10

Time = 9

smoothSolver:  Solving for Ux, Initial residual = 0.029207, Final residual = 0.00224049, No Iterations 5
smoothSolver:  Solving for Uy, Initial residual = 0.0236873, Final residual = 0.00169697, No Iterations 5
GAMG:  Solving for p, Initial residual = 0.0220396, Final residual = 0.00166094, No Iterations 2
time step continuity errors : sum local = 0.00460936, global = 0.000476116, cumulative = 0.00506636
smoothSolver:  Solving for omega, Initial residual = 0.00017662, Final residual = 1.15797e-05, No Iterations 3
smoothSolver:  Solving for k, Initial residual = 0.0251383, Final residual = 0.00166296, No Iterations 5
ExecutionTime = 0.15 s  ClockTime = 0 s

scalarTransport execute: age
smoothSolver:  Solving for age, Initial residual = 0.0374723, Final residual = 0.00331251, No Iterations 11

Time = 10

smoothSolver:  Solving for Ux, Initial residual = 0.0275571, Final residual = 0.00214443, No Iterations 5
smoothSolver:  Solving for Uy, Initial residual = 0.0223218, Final residual = 0.00161958, No Iterations 5
GAMG:  Solving for p, Initial residual = 0.0210714, Final residual = 0.00154312, No Iterations 2
time step continuity errors : sum local = 0.00429335, global = 0.000415615, cumulative = 0.00548198
smoothSolver:  Solving for omega, Initial residual = 0.000117414, Final residual = 9.19591e-06, No Iterations 3
smoothSolver:  Solving for k, Initial residual = 0.0230678, Final residual = 0.00156821, No Iterations 5
ExecutionTime = 0.16 s  ClockTime = 1 s

scalarTransport execute: age
smoothSolver:  Solving for age, Initial residual = 0.0325313, Final residual = 0.00304, No Iterations 11

Time = 11

smoothSolver:  Solving for Ux, Initial residual = 0.0274653, Final residual = 0.00219596, No Iterations 5
smoothSolver:  Solving for Uy, Initial residual = 0.0209492, Final residual = 0.00153556, No Iterations 5
GAMG:  Solving for p, Initial residual = 0.0203328, Final residual = 0.00145958, No Iterations 2
time step continuity errors : sum local = 0.00407109, global = 0.000367724, cumulative = 0.0058497
smoothSolver:  Solving for omega, Initial residual = 9.4546e-05, Final residual = 7.38954e-06, No Iterations 3
smoothSolver:  Solving for k, Initial residual = 0.0214424, Final residual = 0.00148328, No Iterations 5
ExecutionTime = 0.18 s  ClockTime = 1 s

scalarTransport execute: age
smoothSolver:  Solving for age, Initial residual = 0.0289993, Final residual = 0.0028122, No Iterations 11

Time = 12

smoothSolver:  Solving for Ux, Initial residual = 0.0259305, Final residual = 0.00206698, No Iterations 5
smoothSolver:  Solving for Uy, Initial residual = 0.0197174, Final residual = 0.00144817, No Iterations 5
GAMG:  Solving for p, Initial residual = 0.019783, Final residual = 0.00142764, No Iterations 2
time step continuity errors : sum local = 0.00399113, global = 0.000343007, cumulative = 0.00619271
smoothSolver:  Solving for omega, Initial residual = 7.37264e-05, Final residual = 6.11579e-06, No Iterations 3
smoothSolver:  Solving for k, Initial residual = 0.0201117, Final residual = 0.00140539, No Iterations 5
ExecutionTime = 0.19 s  ClockTime = 1 s

scalarTransport execute: age
smoothSolver:  Solving for age, Initial residual = 0.0273083, Final residual = 0.00271168, No Iterations 11

Time = 13

smoothSolver:  Solving for Ux, Initial residual = 0.0244426, Final residual = 0.00192862, No Iterations 5
smoothSolver:  Solving for Uy, Initial residual = 0.0184796, Final residual = 0.00135515, No Iterations 5
GAMG:  Solving for p, Initial residual = 0.0193701, Final residual = 0.00140464, No Iterations 2
time step continuity errors : sum local = 0.00393444, global = 0.00034263, cumulative = 0.00653534
smoothSolver:  Solving for omega, Initial residual = 6.85833e-05, Final residual = 5.15216e-06, No Iterations 3
smoothSolver:  Solving for k, Initial residual = 0.0189784, Final residual = 0.00133247, No Iterations 5
ExecutionTime = 0.2 s  ClockTime = 1 s

scalarTransport execute: age
smoothSolver:  Solving for age, Initial residual = 0.026548, Final residual = 0.00253373, No Iterations 11

Time = 14

smoothSolver:  Solving for Ux, Initial residual = 0.0230538, Final residual = 0.00179243, No Iterations 5
smoothSolver:  Solving for Uy, Initial residual = 0.017252, Final residual = 0.00125959, No Iterations 5
GAMG:  Solving for p, Initial residual = 0.0188128, Final residual = 0.00137237, No Iterations 2
time step continuity errors : sum local = 0.00384884, global = 0.000360984, cumulative = 0.00689632
smoothSolver:  Solving for omega, Initial residual = 6.7419e-05, Final residual = 4.42707e-06, No Iterations 3
smoothSolver:  Solving for k, Initial residual = 0.0179763, Final residual = 0.00126376, No Iterations 5
ExecutionTime = 0.21 s  ClockTime = 1 s

scalarTransport execute: age
smoothSolver:  Solving for age, Initial residual = 0.0260127, Final residual = 0.00235484, No Iterations 11

Time = 15

smoothSolver:  Solving for Ux, Initial residual = 0.0216466, Final residual = 0.00165864, No Iterations 5
smoothSolver:  Solving for Uy, Initial residual = 0.0159516, Final residual = 0.00116458, No Iterations 5
GAMG:  Solving for p, Initial residual = 0.0180531, Final residual = 0.00134342, No Iterations 2
time step continuity errors : sum local = 0.00376778, global = 0.000390928, cumulative = 0.00728725
smoothSolver:  Solving for omega, Initial residual = 6.27685e-05, Final residual = 3.84701e-06, No Iterations 3
smoothSolver:  Solving for k, Initial residual = 0.0170414, Final residual = 0.00119577, No Iterations 5
ExecutionTime = 0.23 s  ClockTime = 1 s

scalarTransport execute: age
smoothSolver:  Solving for age, Initial residual = 0.0246712, Final residual = 0.00222146, No Iterations 11

Time = 16

smoothSolver:  Solving for Ux, Initial residual = 0.0201629, Final residual = 0.00152357, No Iterations 5
smoothSolver:  Solving for Uy, Initial residual = 0.0147015, Final residual = 0.00107236, No Iterations 5
GAMG:  Solving for p, Initial residual = 0.0171606, Final residual = 0.00131211, No Iterations 2
time step continuity errors : sum local = 0.00367386, global = 0.00042398, cumulative = 0.00771123
smoothSolver:  Solving for omega, Initial residual = 7.39781e-05, Final residual = 6.60148e-06, No Iterations 2
smoothSolver:  Solving for k, Initial residual = 0.0161947, Final residual = 0.00113098, No Iterations 5
ExecutionTime = 0.24 s  ClockTime = 1 s

scalarTransport execute: age
smoothSolver:  Solving for age, Initial residual = 0.0231051, Final residual = 0.00209244, No Iterations 11

Time = 17

smoothSolver:  Solving for Ux, Initial residual = 0.0186736, Final residual = 0.00139804, No Iterations 5
smoothSolver:  Solving for Uy, Initial residual = 0.01347, Final residual = 0.000984001, No Iterations 5
GAMG:  Solving for p, Initial residual = 0.0161636, Final residual = 0.00127177, No Iterations 2
time step continuity errors : sum local = 0.00354905, global = 0.000451388, cumulative = 0.00816262
smoothSolver:  Solving for omega, Initial residual = 8.02543e-05, Final residual = 6.26178e-06, No Iterations 2
smoothSolver:  Solving for k, Initial residual = 0.0153566, Final residual = 0.00106619, No Iterations 5
ExecutionTime = 0.25 s  ClockTime = 1 s

scalarTransport execute: age
smoothSolver:  Solving for age, Initial residual = 0.0211491, Final residual = 0.00195706, No Iterations 11

Time = 18

smoothSolver:  Solving for Ux, Initial residual = 0.0171888, Final residual = 0.0012804, No Iterations 5
smoothSolver:  Solving for Uy, Initial residual = 0.0122972, Final residual = 0.000902566, No Iterations 5
GAMG:  Solving for p, Initial residual = 0.0150775, Final residual = 0.00120956, No Iterations 2
time step continuity errors : sum local = 0.00335848, global = 0.000462322, cumulative = 0.00862494
smoothSolver:  Solving for omega, Initial residual = 7.39075e-05, Final residual = 5.87602e-06, No Iterations 2
smoothSolver:  Solving for k, Initial residual = 0.0145115, Final residual = 0.0010006, No Iterations 5
ExecutionTime = 0.26 s  ClockTime = 1 s

scalarTransport execute: age
smoothSolver:  Solving for age, Initial residual = 0.0190106, Final residual = 0.00180446, No Iterations 11

Time = 19

smoothSolver:  Solving for Ux, Initial residual = 0.0134301, Final residual = 0.000823255, No Iterations 5
smoothSolver:  Solving for Uy, Initial residual = 0.0115043, Final residual = 0.000829231, No Iterations 5
GAMG:  Solving for p, Initial residual = 0.0139804, Final residual = 0.00115239, No Iterations 2
time step continuity errors : sum local = 0.00317841, global = 0.000450579, cumulative = 0.00907552
smoothSolver:  Solving for omega, Initial residual = 7.35553e-05, Final residual = 5.52522e-06, No Iterations 2
smoothSolver:  Solving for k, Initial residual = 0.0136285, Final residual = 0.000933893, No Iterations 5
ExecutionTime = 0.27 s  ClockTime = 1 s

scalarTransport execute: age
smoothSolver:  Solving for age, Initial residual = 0.0167865, Final residual = 0.0016567, No Iterations 11

Time = 20

smoothSolver:  Solving for Ux, Initial residual = 0.0142698, Final residual = 0.0010619, No Iterations 5
smoothSolver:  Solving for Uy, Initial residual = 0.0102645, Final residual = 0.000765525, No Iterations 5
GAMG:  Solving for p, Initial residual = 0.0129237, Final residual = 0.00112114, No Iterations 2
time step continuity errors : sum local = 0.00306841, global = 0.00043632, cumulative = 0.00951184
smoothSolver:  Solving for omega, Initial residual = 6.43701e-05, Final residual = 5.084e-06, No Iterations 2
smoothSolver:  Solving for k, Initial residual = 0.0127041, Final residual = 0.00086711, No Iterations 5
ExecutionTime = 0.29 s  ClockTime = 1 s

scalarTransport execute: age
smoothSolver:  Solving for age, Initial residual = 0.0149829, Final residual = 0.00129929, No Iterations 12

Time = 21

smoothSolver:  Solving for Ux, Initial residual = 0.0129046, Final residual = 0.000965896, No Iterations 5
smoothSolver:  Solving for Uy, Initial residual = 0.00948191, Final residual = 0.000709434, No Iterations 5
GAMG:  Solving for p, Initial residual = 0.0118898, Final residual = 0.00106241, No Iterations 2
time step continuity errors : sum local = 0.00288576, global = 0.000412065, cumulative = 0.00992391
smoothSolver:  Solving for omega, Initial residual = 7.14655e-05, Final residual = 5.09497e-06, No Iterations 2
smoothSolver:  Solving for k, Initial residual = 0.0117592, Final residual = 0.000801299, No Iterations 5
ExecutionTime = 0.3 s  ClockTime = 1 s

scalarTransport execute: age
smoothSolver:  Solving for age, Initial residual = 0.0133442, Final residual = 0.00116445, No Iterations 12

Time = 22

smoothSolver:  Solving for Ux, Initial residual = 0.0117904, Final residual = 0.000891294, No Iterations 5
smoothSolver:  Solving for Uy, Initial residual = 0.00866448, Final residual = 0.000661557, No Iterations 5
GAMG:  Solving for p, Initial residual = 0.0109033, Final residual = 0.000990951, No Iterations 2
time step continuity errors : sum local = 0.00266963, global = 0.000374275, cumulative = 0.0102982
smoothSolver:  Solving for omega, Initial residual = 6.5581e-05, Final residual = 4.78779e-06, No Iterations 2
smoothSolver:  Solving for k, Initial residual = 0.0108214, Final residual = 0.000737841, No Iterations 5
ExecutionTime = 0.31 s  ClockTime = 1 s

scalarTransport execute: age
smoothSolver:  Solving for age, Initial residual = 0.0120498, Final residual = 0.0010427, No Iterations 12

Time = 23

smoothSolver:  Solving for Ux, Initial residual = 0.0107493, Final residual = 0.000822175, No Iterations 5
smoothSolver:  Solving for Uy, Initial residual = 0.00798696, Final residual = 0.000620448, No Iterations 5
GAMG:  Solving for p, Initial residual = 0.00993628, Final residual = 0.00092285, No Iterations 2
time step continuity errors : sum local = 0.00246527, global = 0.000328407, cumulative = 0.0106266
smoothSolver:  Solving for omega, Initial residual = 7.27446e-05, Final residual = 4.47003e-06, No Iterations 2
smoothSolver:  Solving for k, Initial residual = 0.00992312, Final residual = 0.000678309, No Iterations 5
ExecutionTime = 0.32 s  ClockTime = 1 s

scalarTransport execute: age
smoothSolver:  Solving for age, Initial residual = 0.0110231, Final residual = 0.00107759, No Iterations 11

Time = 24

smoothSolver:  Solving for Ux, Initial residual = 0.0097852, Final residual = 0.000764819, No Iterations 5
smoothSolver:  Solving for Uy, Initial residual = 0.00739488, Final residual = 0.000586012, No Iterations 5
GAMG:  Solving for p, Initial residual = 0.0090481, Final residual = 0.000859858, No Iterations 2
time step continuity errors : sum local = 0.00227911, global = 0.000280512, cumulative = 0.0109071
smoothSolver:  Solving for omega, Initial residual = 6.20086e-05, Final residual = 3.98199e-06, No Iterations 2
smoothSolver:  Solving for k, Initial residual = 0.00907647, Final residual = 0.000623008, No Iterations 5
ExecutionTime = 0.34 s  ClockTime = 1 s

scalarTransport execute: age
smoothSolver:  Solving for age, Initial residual = 0.0101937, Final residual = 0.000971377, No Iterations 11

Time = 25

smoothSolver:  Solving for Ux, Initial residual = 0.00898015, Final residual = 0.000715024, No Iterations 5
smoothSolver:  Solving for Uy, Initial residual = 0.00687201, Final residual = 0.000556241, No Iterations 5
GAMG:  Solving for p, Initial residual = 0.00824781, Final residual = 0.000817959, No Iterations 2
time step continuity errors : sum local = 0.00215316, global = 0.000238639, cumulative = 0.0111457
smoothSolver:  Solving for omega, Initial residual = 4.81925e-05, Final residual = 3.49214e-06, No Iterations 2
smoothSolver:  Solving for k, Initial residual = 0.00828802, Final residual = 0.00057224, No Iterations 5
ExecutionTime = 0.35 s  ClockTime = 1 s

scalarTransport execute: age
smoothSolver:  Solving for age, Initial residual = 0.00945242, Final residual = 0.000903942, No Iterations 11

Time = 26

smoothSolver:  Solving for Ux, Initial residual = 0.00821509, Final residual = 0.000670478, No Iterations 5
smoothSolver:  Solving for Uy, Initial residual = 0.00650178, Final residual = 0.000529526, No Iterations 5
GAMG:  Solving for p, Initial residual = 0.00753722, Final residual = 0.000355026, No Iterations 3
time step continuity errors : sum local = 0.000929077, global = 9.23555e-05, cumulative = 0.0112381
smoothSolver:  Solving for omega, Initial residual = 4.89104e-05, Final residual = 3.32249e-06, No Iterations 2
smoothSolver:  Solving for k, Initial residual = 0.00762773, Final residual = 0.000526024, No Iterations 5
ExecutionTime = 0.36 s  ClockTime = 1 s

scalarTransport execute: age
smoothSolver:  Solving for age, Initial residual = 0.00915568, Final residual = 0.000820615, No Iterations 12

Time = 27

smoothSolver:  Solving for Ux, Initial residual = 0.00774664, Final residual = 0.000628692, No Iterations 5
smoothSolver:  Solving for Uy, Initial residual = 0.00624142, Final residual = 0.000515733, No Iterations 5
GAMG:  Solving for p, Initial residual = 0.0064428, Final residual = 0.000291731, No Iterations 3
time step continuity errors : sum local = 0.000754415, global = 6.06736e-06, cumulative = 0.0112442
smoothSolver:  Solving for omega, Initial residual = 4.81135e-05, Final residual = 3.17194e-06, No Iterations 2
smoothSolver:  Solving for k, Initial residual = 0.00699576, Final residual = 0.000483848, No Iterations 5
ExecutionTime = 0.37 s  ClockTime = 1 s

scalarTransport execute: age
smoothSolver:  Solving for age, Initial residual = 0.00908549, Final residual = 0.000873845, No Iterations 12

Time = 28

smoothSolver:  Solving for Ux, Initial residual = 0.00726675, Final residual = 0.000619944, No Iterations 5
smoothSolver:  Solving for Uy, Initial residual = 0.00575025, Final residual = 0.000489676, No Iterations 5
GAMG:  Solving for p, Initial residual = 0.00613334, Final residual = 0.000315404, No Iterations 3
time step continuity errors : sum local = 0.000813085, global = -2.82288e-05, cumulative = 0.0112159
smoothSolver:  Solving for omega, Initial residual = 5.80691e-05, Final residual = 3.45959e-06, No Iterations 2
smoothSolver:  Solving for k, Initial residual = 0.00636269, Final residual = 0.000445297, No Iterations 5
ExecutionTime = 0.39 s  ClockTime = 1 s

scalarTransport execute: age
smoothSolver:  Solving for age, Initial residual = 0.00948977, Final residual = 0.000868076, No Iterations 13

Time = 29

smoothSolver:  Solving for Ux, Initial residual = 0.0068984, Final residual = 0.000585442, No Iterations 5
smoothSolver:  Solving for Uy, Initial residual = 0.00542328, Final residual = 0.000465576, No Iterations 5
GAMG:  Solving for p, Initial residual = 0.00554297, Final residual = 0.000278267, No Iterations 3
time step continuity errors : sum local = 0.00071526, global = -4.41194e-05, cumulative = 0.0111718
smoothSolver:  Solving for omega, Initial residual = 3.92622e-05, Final residual = 2.93207e-06, No Iterations 2
smoothSolver:  Solving for k, Initial residual = 0.00580595, Final residual = 0.000410089, No Iterations 5
ExecutionTime = 0.4 s  ClockTime = 1 s

scalarTransport execute: age
smoothSolver:  Solving for age, Initial residual = 0.00984396, Final residual = 0.000953448, No Iterations 13

Time = 30

smoothSolver:  Solving for Ux, Initial residual = 0.00656749, Final residual = 0.00057715, No Iterations 5
smoothSolver:  Solving for Uy, Initial residual = 0.00506845, Final residual = 0.000445346, No Iterations 5
GAMG:  Solving for p, Initial residual = 0.00501509, Final residual = 0.000245818, No Iterations 3
time step continuity errors : sum local = 0.000630367, global = -4.483e-05, cumulative = 0.011127
smoothSolver:  Solving for omega, Initial residual = 2.91809e-05, Final residual = 2.55086e-06, No Iterations 2
smoothSolver:  Solving for k, Initial residual = 0.00531818, Final residual = 0.000377791, No Iterations 5
ExecutionTime = 0.41 s  ClockTime = 1 s

scalarTransport execute: age
smoothSolver:  Solving for age, Initial residual = 0.00975114, Final residual = 0.000856048, No Iterations 14

Time = 31

smoothSolver:  Solving for Ux, Initial residual = 0.00630492, Final residual = 0.000552562, No Iterations 5
smoothSolver:  Solving for Uy, Initial residual = 0.00478825, Final residual = 0.000426569, No Iterations 5
GAMG:  Solving for p, Initial residual = 0.00460689, Final residual = 0.000224687, No Iterations 3
time step continuity errors : sum local = 0.000575189, global = -4.3323e-05, cumulative = 0.0110837
smoothSolver:  Solving for omega, Initial residual = 3.07658e-05, Final residual = 2.49475e-06, No Iterations 2
smoothSolver:  Solving for k, Initial residual = 0.00488733, Final residual = 0.000348045, No Iterations 5
ExecutionTime = 0.42 s  ClockTime = 1 s

scalarTransport execute: age
smoothSolver:  Solving for age, Initial residual = 0.00943508, Final residual = 0.0009363, No Iterations 13

Time = 32

smoothSolver:  Solving for Ux, Initial residual = 0.00608254, Final residual = 0.000535249, No Iterations 5
smoothSolver:  Solving for Uy, Initial residual = 0.00465593, Final residual = 0.000408449, No Iterations 5
GAMG:  Solving for p, Initial residual = 0.00429851, Final residual = 0.000213873, No Iterations 3
time step continuity errors : sum local = 0.000546515, global = -3.77803e-05, cumulative = 0.0110459
smoothSolver:  Solving for omega, Initial residual = 2.4801e-05, Final residual = 2.31832e-06, No Iterations 2
smoothSolver:  Solving for k, Initial residual = 0.00450676, Final residual = 0.000320443, No Iterations 5
ExecutionTime = 0.44 s  ClockTime = 1 s

scalarTransport execute: age
smoothSolver:  Solving for age, Initial residual = 0.00904919, Final residual = 0.000866237, No Iterations 13

Time = 33

smoothSolver:  Solving for Ux, Initial residual = 0.00584929, Final residual = 0.0005293, No Iterations 5
smoothSolver:  Solving for Uy, Initial residual = 0.00433259, Final residual = 0.000391269, No Iterations 5
GAMG:  Solving for p, Initial residual = 0.00397922, Final residual = 0.000200631, No Iterations 3
time step continuity errors : sum local = 0.000511802, global = -2.89982e-05, cumulative = 0.0110169
smoothSolver:  Solving for omega, Initial residual = 2.09141e-05, Final residual = 1.11884e-06, No Iterations 3
smoothSolver:  Solving for k, Initial residual = 0.00417744, Final residual = 0.000294663, No Iterations 5
ExecutionTime = 0.45 s  ClockTime = 1 s

scalarTransport execute: age
smoothSolver:  Solving for age, Initial residual = 0.00859957, Final residual = 0.000777182, No Iterations 13

Time = 34

smoothSolver:  Solving for Ux, Initial residual = 0.00574823, Final residual = 0.000478694, No Iterations 5
smoothSolver:  Solving for Uy, Initial residual = 0.00425412, Final residual = 0.000374499, No Iterations 5
GAMG:  Solving for p, Initial residual = 0.0037326, Final residual = 0.000187796, No Iterations 3
time step continuity errors : sum local = 0.000478326, global = -1.81108e-05, cumulative = 0.0109988
smoothSolver:  Solving for omega, Initial residual = 2.5314e-05, Final residual = 2.17539e-06, No Iterations 2
smoothSolver:  Solving for k, Initial residual = 0.003887, Final residual = 0.000270434, No Iterations 5
ExecutionTime = 0.45 s  ClockTime = 1 s

scalarTransport execute: age
smoothSolver:  Solving for age, Initial residual = 0.00813023, Final residual = 0.000786289, No Iterations 12

Time = 35

smoothSolver:  Solving for Ux, Initial residual = 0.00550911, Final residual = 0.000494318, No Iterations 5
smoothSolver:  Solving for Uy, Initial residual = 0.00397157, Final residual = 0.000357908, No Iterations 5
GAMG:  Solving for p, Initial residual = 0.00348036, Final residual = 0.000176391, No Iterations 3
time step continuity errors : sum local = 0.000448622, global = -5.59876e-06, cumulative = 0.0109932
smoothSolver:  Solving for omega, Initial residual = 2.22771e-05, Final residual = 2.12089e-06, No Iterations 2
smoothSolver:  Solving for k, Initial residual = 0.00361375, Final residual = 0.000247554, No Iterations 5
ExecutionTime = 0.46 s  ClockTime = 1 s

scalarTransport execute: age
smoothSolver:  Solving for age, Initial residual = 0.00763179, Final residual = 0.000694329, No Iterations 12

Time = 36

smoothSolver:  Solving for Ux, Initial residual = 0.00615349, Final residual = 0.00061434, No Iterations 3
smoothSolver:  Solving for Uy, Initial residual = 0.00688281, Final residual = 0.00054153, No Iterations 4
GAMG:  Solving for p, Initial residual = 0.00296533, Final residual = 0.000138151, No Iterations 3
time step continuity errors : sum local = 0.000350927, global = 5.83021e-06, cumulative = 0.010999
smoothSolver:  Solving for omega, Initial residual = 1.95795e-05, Final residual = 9.92495e-07, No Iterations 3
smoothSolver:  Solving for k, Initial residual = 0.00334161, Final residual = 0.000226003, No Iterations 5
ExecutionTime = 0.48 s  ClockTime = 1 s

scalarTransport execute: age
smoothSolver:  Solving for age, Initial residual = 0.00700942, Final residual = 0.000614928, No Iterations 12

Time = 37

smoothSolver:  Solving for Ux, Initial residual = 0.00524919, Final residual = 0.000485402, No Iterations 5
smoothSolver:  Solving for Uy, Initial residual = 0.00353642, Final residual = 0.000321363, No Iterations 5
GAMG:  Solving for p, Initial residual = 0.00318486, Final residual = 0.000167322, No Iterations 3
time step continuity errors : sum local = 0.000424451, global = 1.36434e-05, cumulative = 0.0110126
smoothSolver:  Solving for omega, Initial residual = 1.77946e-05, Final residual = 9.33188e-07, No Iterations 3
smoothSolver:  Solving for k, Initial residual = 0.00308643, Final residual = 0.000205287, No Iterations 5
ExecutionTime = 0.49 s  ClockTime = 1 s

scalarTransport execute: age
smoothSolver:  Solving for age, Initial residual = 0.006583, Final residual = 0.000649217, No Iterations 11

Time = 38

smoothSolver:  Solving for Ux, Initial residual = 0.00502543, Final residual = 0.000461993, No Iterations 5
smoothSolver:  Solving for Uy, Initial residual = 0.00345748, Final residual = 0.000312388, No Iterations 5
GAMG:  Solving for p, Initial residual = 0.00293717, Final residual = 0.000154981, No Iterations 3
time step continuity errors : sum local = 0.000392439, global = 2.03929e-05, cumulative = 0.011033
smoothSolver:  Solving for omega, Initial residual = 1.70111e-05, Final residual = 8.8648e-07, No Iterations 3
smoothSolver:  Solving for k, Initial residual = 0.00284607, Final residual = 0.000185833, No Iterations 5
ExecutionTime = 0.5 s  ClockTime = 1 s

scalarTransport execute: age
smoothSolver:  Solving for age, Initial residual = 0.00620929, Final residual = 0.000602052, No Iterations 11

Time = 39

smoothSolver:  Solving for Ux, Initial residual = 0.00488729, Final residual = 0.000436263, No Iterations 5
smoothSolver:  Solving for Uy, Initial residual = 0.00343415, Final residual = 0.000302517, No Iterations 5
GAMG:  Solving for p, Initial residual = 0.00277587, Final residual = 0.000145915, No Iterations 3
time step continuity errors : sum local = 0.000368779, global = 2.51132e-05, cumulative = 0.0110582
smoothSolver:  Solving for omega, Initial residual = 2.49733e-05, Final residual = 1.80313e-06, No Iterations 2
smoothSolver:  Solving for k, Initial residual = 0.00261284, Final residual = 0.000167545, No Iterations 5
ExecutionTime = 0.51 s  ClockTime = 1 s

scalarTransport execute: age
smoothSolver:  Solving for age, Initial residual = 0.00588656, Final residual = 0.000567738, No Iterations 11

Time = 40

smoothSolver:  Solving for Ux, Initial residual = 0.00464219, Final residual = 0.000436448, No Iterations 5
smoothSolver:  Solving for Uy, Initial residual = 0.00322211, Final residual = 0.000291135, No Iterations 5
GAMG:  Solving for p, Initial residual = 0.00266022, Final residual = 0.000141587, No Iterations 3
time step continuity errors : sum local = 0.00035711, global = 2.75575e-05, cumulative = 0.0110857
smoothSolver:  Solving for omega, Initial residual = 2.08778e-05, Final residual = 1.78039e-06, No Iterations 2
smoothSolver:  Solving for k, Initial residual = 0.00238258, Final residual = 0.000150473, No Iterations 5
ExecutionTime = 0.53 s  ClockTime = 1 s

scalarTransport execute: age
smoothSolver:  Solving for age, Initial residual = 0.00563494, Final residual = 0.000542537, No Iterations 11

Time = 41

smoothSolver:  Solving for Ux, Initial residual = 0.0045521, Final residual = 0.000416153, No Iterations 5
smoothSolver:  Solving for Uy, Initial residual = 0.0030923, Final residual = 0.000280074, No Iterations 5
GAMG:  Solving for p, Initial residual = 0.0025777, Final residual = 0.000140028, No Iterations 3
time step continuity errors : sum local = 0.000352448, global = 2.90715e-05, cumulative = 0.0111148
smoothSolver:  Solving for omega, Initial residual = 2.05561e-05, Final residual = 1.792e-06, No Iterations 2
smoothSolver:  Solving for k, Initial residual = 0.00216096, Final residual = 0.000134573, No Iterations 5
ExecutionTime = 0.54 s  ClockTime = 1 s

scalarTransport execute: age
smoothSolver:  Solving for age, Initial residual = 0.00540094, Final residual = 0.000517603, No Iterations 11

Time = 42

smoothSolver:  Solving for Ux, Initial residual = 0.00435608, Final residual = 0.000410785, No Iterations 5
smoothSolver:  Solving for Uy, Initial residual = 0.0029796, Final residual = 0.000270686, No Iterations 5
GAMG:  Solving for p, Initial residual = 0.00249278, Final residual = 0.000136877, No Iterations 3
time step continuity errors : sum local = 0.000343799, global = 3.0154e-05, cumulative = 0.0111449
smoothSolver:  Solving for omega, Initial residual = 1.94649e-05, Final residual = 1.72697e-06, No Iterations 2
smoothSolver:  Solving for k, Initial residual = 0.0019536, Final residual = 0.000119865, No Iterations 5
ExecutionTime = 0.55 s  ClockTime = 1 s

scalarTransport execute: age
smoothSolver:  Solving for age, Initial residual = 0.00516725, Final residual = 0.000500907, No Iterations 11

Time = 43

smoothSolver:  Solving for Ux, Initial residual = 0.00423941, Final residual = 0.000391998, No Iterations 5
smoothSolver:  Solving for Uy, Initial residual = 0.00291848, Final residual = 0.000261217, No Iterations 5
GAMG:  Solving for p, Initial residual = 0.002445, Final residual = 0.000124021, No Iterations 3
time step continuity errors : sum local = 0.000310822, global = 2.72847e-05, cumulative = 0.0111722
smoothSolver:  Solving for omega, Initial residual = 1.98284e-05, Final residual = 1.71324e-06, No Iterations 2
smoothSolver:  Solving for k, Initial residual = 0.00176286, Final residual = 0.000106366, No Iterations 5
ExecutionTime = 0.57 s  ClockTime = 1 s

scalarTransport execute: age
smoothSolver:  Solving for age, Initial residual = 0.00496558, Final residual = 0.000490922, No Iterations 11

Time = 44

smoothSolver:  Solving for Ux, Initial residual = 0.00408719, Final residual = 0.000383263, No Iterations 5
smoothSolver:  Solving for Uy, Initial residual = 0.00278972, Final residual = 0.000252338, No Iterations 5
GAMG:  Solving for p, Initial residual = 0.00238815, Final residual = 0.000119837, No Iterations 3
time step continuity errors : sum local = 0.000299607, global = 2.54003e-05, cumulative = 0.0111976
smoothSolver:  Solving for omega, Initial residual = 2.20336e-05, Final residual = 1.75926e-06, No Iterations 2
smoothSolver:  Solving for k, Initial residual = 0.00159446, Final residual = 0.000157769, No Iterations 4
ExecutionTime = 0.58 s  ClockTime = 1 s

scalarTransport execute: age
smoothSolver:  Solving for age, Initial residual = 0.00477754, Final residual = 0.000419031, No Iterations 12

Time = 45

smoothSolver:  Solving for Ux, Initial residual = 0.00397389, Final residual = 0.000362887, No Iterations 5
smoothSolver:  Solving for Uy, Initial residual = 0.00275789, Final residual = 0.000243571, No Iterations 5
GAMG:  Solving for p, Initial residual = 0.00233345, Final residual = 0.00011625, No Iterations 3
time step continuity errors : sum local = 0.000289977, global = 2.46895e-05, cumulative = 0.0112223
smoothSolver:  Solving for omega, Initial residual = 1.93448e-05, Final residual = 1.72829e-06, No Iterations 2
smoothSolver:  Solving for k, Initial residual = 0.00144588, Final residual = 0.000140094, No Iterations 4
ExecutionTime = 0.59 s  ClockTime = 1 s

scalarTransport execute: age
smoothSolver:  Solving for age, Initial residual = 0.00465814, Final residual = 0.000407763, No Iterations 12

Time = 46

smoothSolver:  Solving for Ux, Initial residual = 0.00379842, Final residual = 0.000354197, No Iterations 5
smoothSolver:  Solving for Uy, Initial residual = 0.00260974, Final residual = 0.000234834, No Iterations 5
GAMG:  Solving for p, Initial residual = 0.00228918, Final residual = 0.000112405, No Iterations 3
time step continuity errors : sum local = 0.00027976, global = 2.44582e-05, cumulative = 0.0112468
smoothSolver:  Solving for omega, Initial residual = 2.44962e-05, Final residual = 1.74382e-06, No Iterations 2
smoothSolver:  Solving for k, Initial residual = 0.00130948, Final residual = 0.000124128, No Iterations 4
ExecutionTime = 0.6 s  ClockTime = 1 s

scalarTransport execute: age
smoothSolver:  Solving for age, Initial residual = 0.00452274, Final residual = 0.000401266, No Iterations 12

Time = 47

smoothSolver:  Solving for Ux, Initial residual = 0.00363794, Final residual = 0.000338185, No Iterations 5
smoothSolver:  Solving for Uy, Initial residual = 0.0025153, Final residual = 0.000226536, No Iterations 5
GAMG:  Solving for p, Initial residual = 0.00221792, Final residual = 0.000108493, No Iterations 3
time step continuity errors : sum local = 0.000269417, global = 2.41998e-05, cumulative = 0.011271
smoothSolver:  Solving for omega, Initial residual = 2.16856e-05, Final residual = 1.68265e-06, No Iterations 2
smoothSolver:  Solving for k, Initial residual = 0.00118302, Final residual = 0.000109764, No Iterations 4
ExecutionTime = 0.63 s  ClockTime = 1 s

scalarTransport execute: age
smoothSolver:  Solving for age, Initial residual = 0.00437756, Final residual = 0.000396689, No Iterations 12

Time = 48

smoothSolver:  Solving for Ux, Initial residual = 0.00370229, Final residual = 0.000316407, No Iterations 5
smoothSolver:  Solving for Uy, Initial residual = 0.00254575, Final residual = 0.000218618, No Iterations 5
GAMG:  Solving for p, Initial residual = 0.00229475, Final residual = 0.000107845, No Iterations 3
time step continuity errors : sum local = 0.000267204, global = 2.42118e-05, cumulative = 0.0112952
smoothSolver:  Solving for omega, Initial residual = 2.57667e-05, Final residual = 1.67209e-06, No Iterations 2
smoothSolver:  Solving for k, Initial residual = 0.00108081, Final residual = 9.69177e-05, No Iterations 4
ExecutionTime = 0.64 s  ClockTime = 1 s

scalarTransport execute: age
smoothSolver:  Solving for age, Initial residual = 0.00430506, Final residual = 0.000396268, No Iterations 12

Time = 49

smoothSolver:  Solving for Ux, Initial residual = 0.00342366, Final residual = 0.000308726, No Iterations 5
smoothSolver:  Solving for Uy, Initial residual = 0.00240222, Final residual = 0.000208068, No Iterations 5
GAMG:  Solving for p, Initial residual = 0.00217883, Final residual = 0.000102432, No Iterations 3
time step continuity errors : sum local = 0.000253235, global = 2.24195e-05, cumulative = 0.0113176
smoothSolver:  Solving for omega, Initial residual = 4.47706e-05, Final residual = 1.76177e-06, No Iterations 2
smoothSolver:  Solving for k, Initial residual = 0.000968169, Final residual = 8.54962e-05, No Iterations 4
ExecutionTime = 0.65 s  ClockTime = 1 s

scalarTransport execute: age
smoothSolver:  Solving for age, Initial residual = 0.0042098, Final residual = 0.000390469, No Iterations 12

Time = 50

smoothSolver:  Solving for Ux, Initial residual = 0.00316878, Final residual = 0.000288979, No Iterations 5
smoothSolver:  Solving for Uy, Initial residual = 0.00229202, Final residual = 0.000200741, No Iterations 5
GAMG:  Solving for p, Initial residual = 0.00206225, Final residual = 9.53957e-05, No Iterations 3
time step continuity errors : sum local = 0.000235364, global = 2.21273e-05, cumulative = 0.0113397
smoothSolver:  Solving for omega, Initial residual = 3.12378e-05, Final residual = 1.58556e-06, No Iterations 2
smoothSolver:  Solving for k, Initial residual = 0.000868082, Final residual = 7.53949e-05, No Iterations 4
ExecutionTime = 0.66 s  ClockTime = 1 s

scalarTransport execute: age
smoothSolver:  Solving for age, Initial residual = 0.00404985, Final residual = 0.000386639, No Iterations 12

Time = 51

smoothSolver:  Solving for Ux, Initial residual = 0.00310921, Final residual = 0.000267028, No Iterations 5
smoothSolver:  Solving for Uy, Initial residual = 0.00217862, Final residual = 0.000192103, No Iterations 5
GAMG:  Solving for p, Initial residual = 0.0019808, Final residual = 9.03356e-05, No Iterations 3
time step continuity errors : sum local = 0.000222414, global = 2.03192e-05, cumulative = 0.01136
smoothSolver:  Solving for omega, Initial residual = 2.93237e-05, Final residual = 1.55993e-06, No Iterations 2
smoothSolver:  Solving for k, Initial residual = 0.000779131, Final residual = 6.65161e-05, No Iterations 4
ExecutionTime = 0.68 s  ClockTime = 1 s

scalarTransport execute: age
smoothSolver:  Solving for age, Initial residual = 0.00390698, Final residual = 0.000378028, No Iterations 12

Time = 52

smoothSolver:  Solving for Ux, Initial residual = 0.00282338, Final residual = 0.00025822, No Iterations 5
smoothSolver:  Solving for Uy, Initial residual = 0.00205276, Final residual = 0.000183297, No Iterations 5
GAMG:  Solving for p, Initial residual = 0.00189617, Final residual = 8.74598e-05, No Iterations 3
time step continuity errors : sum local = 0.00021491, global = 1.8882e-05, cumulative = 0.0113789
smoothSolver:  Solving for omega, Initial residual = 2.8769e-05, Final residual = 1.5193e-06, No Iterations 2
smoothSolver:  Solving for k, Initial residual = 0.000702625, Final residual = 5.87466e-05, No Iterations 4
ExecutionTime = 0.69 s  ClockTime = 1 s

scalarTransport execute: age
smoothSolver:  Solving for age, Initial residual = 0.0037781, Final residual = 0.000367286, No Iterations 12

Time = 53

smoothSolver:  Solving for Ux, Initial residual = 0.00265153, Final residual = 0.000241661, No Iterations 5
smoothSolver:  Solving for Uy, Initial residual = 0.00197197, Final residual = 0.000174667, No Iterations 5
GAMG:  Solving for p, Initial residual = 0.00183924, Final residual = 8.35838e-05, No Iterations 3
time step continuity errors : sum local = 0.000205024, global = 1.69951e-05, cumulative = 0.0113959
smoothSolver:  Solving for omega, Initial residual = 2.36395e-05, Final residual = 1.38936e-06, No Iterations 2
smoothSolver:  Solving for k, Initial residual = 0.000636259, Final residual = 5.19882e-05, No Iterations 4
ExecutionTime = 0.7 s  ClockTime = 1 s

scalarTransport execute: age
smoothSolver:  Solving for age, Initial residual = 0.00365291, Final residual = 0.000359684, No Iterations 12

Time = 54

smoothSolver:  Solving for Ux, Initial residual = 0.00248866, Final residual = 0.000226858, No Iterations 5
smoothSolver:  Solving for Uy, Initial residual = 0.00185652, Final residual = 0.000166196, No Iterations 5
GAMG:  Solving for p, Initial residual = 0.00174447, Final residual = 8.12961e-05, No Iterations 3
time step continuity errors : sum local = 0.000199084, global = 1.47557e-05, cumulative = 0.0114107
smoothSolver:  Solving for omega, Initial residual = 2.00986e-05, Final residual = 1.30608e-06, No Iterations 2
smoothSolver:  Solving for k, Initial residual = 0.000582607, Final residual = 4.61354e-05, No Iterations 4
ExecutionTime = 0.71 s  ClockTime = 1 s

scalarTransport execute: age
smoothSolver:  Solving for age, Initial residual = 0.00350943, Final residual = 0.000350368, No Iterations 12

Time = 55

smoothSolver:  Solving for Ux, Initial residual = 0.00232088, Final residual = 0.000211349, No Iterations 5
smoothSolver:  Solving for Uy, Initial residual = 0.00175625, Final residual = 0.000157611, No Iterations 5
GAMG:  Solving for p, Initial residual = 0.00164685, Final residual = 7.8676e-05, No Iterations 3
time step continuity errors : sum local = 0.000192379, global = 1.24096e-05, cumulative = 0.0114231
smoothSolver:  Solving for omega, Initial residual = 1.73692e-05, Final residual = 1.2329e-06, No Iterations 2
smoothSolver:  Solving for k, Initial residual = 0.000538507, Final residual = 4.10873e-05, No Iterations 4
ExecutionTime = 0.73 s  ClockTime = 1 s

scalarTransport execute: age
smoothSolver:  Solving for age, Initial residual = 0.00339586, Final residual = 0.000295731, No Iterations 13

Time = 56

smoothSolver:  Solving for Ux, Initial residual = 0.00221512, Final residual = 0.000194447, No Iterations 5
smoothSolver:  Solving for Uy, Initial residual = 0.00180249, Final residual = 0.000149297, No Iterations 5
GAMG:  Solving for p, Initial residual = 0.00166045, Final residual = 7.69553e-05, No Iterations 3
time step continuity errors : sum local = 0.000187913, global = 9.98075e-06, cumulative = 0.0114331
smoothSolver:  Solving for omega, Initial residual = 1.34067e-05, Final residual = 1.12833e-06, No Iterations 2
smoothSolver:  Solving for k, Initial residual = 0.000507977, Final residual = 3.67435e-05, No Iterations 4
ExecutionTime = 0.74 s  ClockTime = 1 s

scalarTransport execute: age
smoothSolver:  Solving for age, Initial residual = 0.00333509, Final residual = 0.000332744, No Iterations 12

Time = 57

smoothSolver:  Solving for Ux, Initial residual = 0.0020972, Final residual = 0.0001835, No Iterations 5
smoothSolver:  Solving for Uy, Initial residual = 0.00161727, Final residual = 0.000141452, No Iterations 5
GAMG:  Solving for p, Initial residual = 0.00155081, Final residual = 7.76911e-05, No Iterations 3
time step continuity errors : sum local = 0.00018948, global = 7.65561e-06, cumulative = 0.0114407
smoothSolver:  Solving for omega, Initial residual = 1.50654e-05, Final residual = 1.11659e-06, No Iterations 2
smoothSolver:  Solving for k, Initial residual = 0.000475461, Final residual = 3.30078e-05, No Iterations 4
ExecutionTime = 0.75 s  ClockTime = 1 s

scalarTransport execute: age
smoothSolver:  Solving for age, Initial residual = 0.00325185, Final residual = 0.000284134, No Iterations 13

Time = 58

smoothSolver:  Solving for Ux, Initial residual = 0.00194277, Final residual = 0.000172082, No Iterations 5
smoothSolver:  Solving for Uy, Initial residual = 0.00149845, Final residual = 0.000133918, No Iterations 5
GAMG:  Solving for p, Initial residual = 0.00144838, Final residual = 7.60202e-05, No Iterations 3
time step continuity errors : sum local = 0.000185217, global = 6.80425e-06, cumulative = 0.0114475
smoothSolver:  Solving for omega, Initial residual = 1.44325e-05, Final residual = 1.02276e-06, No Iterations 2
smoothSolver:  Solving for k, Initial residual = 0.000441756, Final residual = 2.97929e-05, No Iterations 4
ExecutionTime = 0.76 s  ClockTime = 1 s

scalarTransport execute: age
smoothSolver:  Solving for age, Initial residual = 0.00317725, Final residual = 0.000277879, No Iterations 13

Time = 59

smoothSolver:  Solving for Ux, Initial residual = 0.00203332, Final residual = 0.000153628, No Iterations 5
smoothSolver:  Solving for Uy, Initial residual = 0.00158406, Final residual = 0.000126943, No Iterations 5
GAMG:  Solving for p, Initial residual = 0.00138247, Final residual = 7.36706e-05, No Iterations 3
time step continuity errors : sum local = 0.000179344, global = 6.30841e-06, cumulative = 0.0114538
smoothSolver:  Solving for omega, Initial residual = 1.40052e-05, Final residual = 9.66038e-07, No Iterations 2
smoothSolver:  Solving for k, Initial residual = 0.000417497, Final residual = 2.70224e-05, No Iterations 4
ExecutionTime = 0.78 s  ClockTime = 1 s

scalarTransport execute: age
smoothSolver:  Solving for age, Initial residual = 0.00311659, Final residual = 0.000273389, No Iterations 13

Time = 60

smoothSolver:  Solving for Ux, Initial residual = 0.00172097, Final residual = 0.000150776, No Iterations 5
smoothSolver:  Solving for Uy, Initial residual = 0.00134324, Final residual = 0.000119878, No Iterations 5
GAMG:  Solving for p, Initial residual = 0.00130198, Final residual = 6.96835e-05, No Iterations 3
time step continuity errors : sum local = 0.000169508, global = 4.99508e-06, cumulative = 0.0114588
smoothSolver:  Solving for omega, Initial residual = 1.8054e-05, Final residual = 9.40376e-07, No Iterations 2
smoothSolver:  Solving for k, Initial residual = 0.000392767, Final residual = 2.4625e-05, No Iterations 4
ExecutionTime = 0.79 s  ClockTime = 1 s

scalarTransport execute: age
smoothSolver:  Solving for age, Initial residual = 0.00303642, Final residual = 0.000269677, No Iterations 13

Time = 61

smoothSolver:  Solving for Ux, Initial residual = 0.00161969, Final residual = 0.000140883, No Iterations 5
smoothSolver:  Solving for Uy, Initial residual = 0.00126652, Final residual = 0.000113131, No Iterations 5
GAMG:  Solving for p, Initial residual = 0.00122107, Final residual = 6.77452e-05, No Iterations 3
time step continuity errors : sum local = 0.000164681, global = 2.83597e-06, cumulative = 0.0114617
smoothSolver:  Solving for omega, Initial residual = 1.02103e-05, Final residual = 7.92411e-07, No Iterations 2
smoothSolver:  Solving for k, Initial residual = 0.000370813, Final residual = 3.68116e-05, No Iterations 3
ExecutionTime = 0.8 s  ClockTime = 1 s

scalarTransport execute: age
smoothSolver:  Solving for age, Initial residual = 0.0029722, Final residual = 0.000265653, No Iterations 13

Time = 62

smoothSolver:  Solving for Ux, Initial residual = 0.00152504, Final residual = 0.000131621, No Iterations 5
smoothSolver:  Solving for Uy, Initial residual = 0.00120049, Final residual = 0.000106322, No Iterations 5
GAMG:  Solving for p, Initial residual = 0.00115719, Final residual = 6.50779e-05, No Iterations 3
time step continuity errors : sum local = 0.000158102, global = -2.43576e-07, cumulative = 0.0114614
smoothSolver:  Solving for omega, Initial residual = 1.0573e-05, Final residual = 7.42749e-07, No Iterations 2
smoothSolver:  Solving for k, Initial residual = 0.000355137, Final residual = 3.4072e-05, No Iterations 3
ExecutionTime = 0.81 s  ClockTime = 1 s

scalarTransport execute: age
smoothSolver:  Solving for age, Initial residual = 0.00290551, Final residual = 0.000262783, No Iterations 13

Time = 63

smoothSolver:  Solving for Ux, Initial residual = 0.00148154, Final residual = 0.000122404, No Iterations 5
smoothSolver:  Solving for Uy, Initial residual = 0.0011558, Final residual = 9.96717e-05, No Iterations 5
GAMG:  Solving for p, Initial residual = 0.00110083, Final residual = 6.40707e-05, No Iterations 3
time step continuity errors : sum local = 0.000155574, global = -4.28841e-06, cumulative = 0.0114571
smoothSolver:  Solving for omega, Initial residual = 1.13652e-05, Final residual = 7.29012e-07, No Iterations 2
smoothSolver:  Solving for k, Initial residual = 0.000340759, Final residual = 3.16377e-05, No Iterations 3
ExecutionTime = 0.83 s  ClockTime = 1 s

scalarTransport execute: age
smoothSolver:  Solving for age, Initial residual = 0.00283256, Final residual = 0.000262137, No Iterations 13

Time = 64

smoothSolver:  Solving for Ux, Initial residual = 0.00134414, Final residual = 0.000115025, No Iterations 5
smoothSolver:  Solving for Uy, Initial residual = 0.00108568, Final residual = 9.33725e-05, No Iterations 5
GAMG:  Solving for p, Initial residual = 0.00104992, Final residual = 6.07413e-05, No Iterations 3
time step continuity errors : sum local = 0.000147424, global = -8.87277e-06, cumulative = 0.0114483
smoothSolver:  Solving for omega, Initial residual = 1.30316e-05, Final residual = 6.49951e-07, No Iterations 2
smoothSolver:  Solving for k, Initial residual = 0.000325066, Final residual = 2.94617e-05, No Iterations 3
ExecutionTime = 0.84 s  ClockTime = 1 s

scalarTransport execute: age
smoothSolver:  Solving for age, Initial residual = 0.00276587, Final residual = 0.000257113, No Iterations 13

Time = 65

smoothSolver:  Solving for Ux, Initial residual = 0.0018609, Final residual = 0.000155186, No Iterations 4
smoothSolver:  Solving for Uy, Initial residual = 0.00133347, Final residual = 8.68348e-05, No Iterations 5
GAMG:  Solving for p, Initial residual = 0.000948541, Final residual = 5.12171e-05, No Iterations 3
time step continuity errors : sum local = 0.000124264, global = -1.23813e-05, cumulative = 0.0114359
smoothSolver:  Solving for omega, Initial residual = 1.32507e-05, Final residual = 6.65193e-07, No Iterations 2
smoothSolver:  Solving for k, Initial residual = 0.000309418, Final residual = 2.7496e-05, No Iterations 3
ExecutionTime = 0.85 s  ClockTime = 1 s

scalarTransport execute: age
smoothSolver:  Solving for age, Initial residual = 0.00272556, Final residual = 0.000251133, No Iterations 13

Time = 66

smoothSolver:  Solving for Ux, Initial residual = 0.00119834, Final residual = 0.000102527, No Iterations 5
smoothSolver:  Solving for Uy, Initial residual = 0.000972296, Final residual = 7.97025e-05, No Iterations 5
GAMG:  Solving for p, Initial residual = 0.000923342, Final residual = 5.21854e-05, No Iterations 3
time step continuity errors : sum local = 0.000126583, global = -1.44682e-05, cumulative = 0.0114214
smoothSolver:  Solving for omega, Initial residual = 1.62144e-05, Final residual = 6.44737e-07, No Iterations 2
smoothSolver:  Solving for k, Initial residual = 0.000294808, Final residual = 2.57243e-05, No Iterations 3
ExecutionTime = 0.86 s  ClockTime = 1 s

scalarTransport execute: age
smoothSolver:  Solving for age, Initial residual = 0.00271899, Final residual = 0.000246237, No Iterations 13

Time = 67

smoothSolver:  Solving for Ux, Initial residual = 0.00112237, Final residual = 9.56777e-05, No Iterations 5
smoothSolver:  Solving for Uy, Initial residual = 0.00087659, Final residual = 7.50614e-05, No Iterations 5
GAMG:  Solving for p, Initial residual = 0.000852429, Final residual = 4.52425e-05, No Iterations 3
time step continuity errors : sum local = 0.000109731, global = -1.39643e-05, cumulative = 0.0114074
smoothSolver:  Solving for omega, Initial residual = 1.42315e-05, Final residual = 5.85829e-07, No Iterations 2
smoothSolver:  Solving for k, Initial residual = 0.000278959, Final residual = 2.4106e-05, No Iterations 3
ExecutionTime = 0.87 s  ClockTime = 1 s

scalarTransport execute: age
smoothSolver:  Solving for age, Initial residual = 0.00268217, Final residual = 0.000240798, No Iterations 13

Time = 68

smoothSolver:  Solving for Ux, Initial residual = 0.00152766, Final residual = 3.90145e-05, No Iterations 1
smoothSolver:  Solving for Uy, Initial residual = 0.111658, Final residual = 0.000405718, No Iterations 1
GAMG:  Solving for p, Initial residual = 0.00055444, Final residual = 2.2992e-05, No Iterations 3
time step continuity errors : sum local = 5.5772e-05, global = -5.57048e-06, cumulative = 0.0114019
smoothSolver:  Solving for omega, Initial residual = 6.9354e-06, Final residual = 3.29933e-07, No Iterations 2
smoothSolver:  Solving for k, Initial residual = 0.000246994, Final residual = 2.25929e-05, No Iterations 3
ExecutionTime = 0.89 s  ClockTime = 1 s

scalarTransport execute: age
smoothSolver:  Solving for age, Initial residual = 0.00257273, Final residual = 0.000234837, No Iterations 13

Time = 69

smoothSolver:  Solving for Ux, Initial residual = 0.00102788, Final residual = 8.73017e-05, No Iterations 5
smoothSolver:  Solving for Uy, Initial residual = 0.000809632, Final residual = 6.9413e-05, No Iterations 5
GAMG:  Solving for p, Initial residual = 0.000788034, Final residual = 4.42405e-05, No Iterations 3
time step continuity errors : sum local = 0.000107342, global = -6.87785e-06, cumulative = 0.011395
smoothSolver:  Solving for omega, Initial residual = 1.23534e-05, Final residual = 5.21559e-07, No Iterations 2
smoothSolver:  Solving for k, Initial residual = 0.000232236, Final residual = 2.12287e-05, No Iterations 3
ExecutionTime = 0.89 s  ClockTime = 1 s

scalarTransport execute: age
smoothSolver:  Solving for age, Initial residual = 0.00247387, Final residual = 0.000224662, No Iterations 13

Time = 70

smoothSolver:  Solving for Ux, Initial residual = 0.00105067, Final residual = 8.18191e-05, No Iterations 5
smoothSolver:  Solving for Uy, Initial residual = 0.000790439, Final residual = 6.40577e-05, No Iterations 5
GAMG:  Solving for p, Initial residual = 0.00077375, Final residual = 4.66081e-05, No Iterations 3
time step continuity errors : sum local = 0.000113069, global = -9.44502e-06, cumulative = 0.0113856
smoothSolver:  Solving for omega, Initial residual = 8.79739e-06, Final residual = 4.72111e-07, No Iterations 2
smoothSolver:  Solving for k, Initial residual = 0.000225706, Final residual = 1.99565e-05, No Iterations 3
ExecutionTime = 0.9 s  ClockTime = 1 s

scalarTransport execute: age
smoothSolver:  Solving for age, Initial residual = 0.00240458, Final residual = 0.000219352, No Iterations 13

Time = 71

smoothSolver:  Solving for Ux, Initial residual = 0.00188277, Final residual = 0.000128961, No Iterations 2
smoothSolver:  Solving for Uy, Initial residual = 0.0150465, Final residual = 0.000390153, No Iterations 1
GAMG:  Solving for p, Initial residual = 0.000596733, Final residual = 2.87981e-05, No Iterations 3
time step continuity errors : sum local = 6.98604e-05, global = -6.67959e-06, cumulative = 0.0113789
smoothSolver:  Solving for omega, Initial residual = 6.21188e-06, Final residual = 3.80707e-07, No Iterations 2
smoothSolver:  Solving for k, Initial residual = 0.000210224, Final residual = 1.87623e-05, No Iterations 3
ExecutionTime = 0.91 s  ClockTime = 1 s

scalarTransport execute: age
smoothSolver:  Solving for age, Initial residual = 0.00233004, Final residual = 0.00021022, No Iterations 13

Time = 72

smoothSolver:  Solving for Ux, Initial residual = 0.000951947, Final residual = 6.89806e-05, No Iterations 5
smoothSolver:  Solving for Uy, Initial residual = 0.000755247, Final residual = 6.2475e-05, No Iterations 5
GAMG:  Solving for p, Initial residual = 0.000695008, Final residual = 3.28485e-05, No Iterations 3
time step continuity errors : sum local = 7.96916e-05, global = -8.94375e-06, cumulative = 0.0113699
smoothSolver:  Solving for omega, Initial residual = 8.70553e-06, Final residual = 4.17582e-07, No Iterations 2
smoothSolver:  Solving for k, Initial residual = 0.000197917, Final residual = 1.7636e-05, No Iterations 3
ExecutionTime = 0.92 s  ClockTime = 1 s

scalarTransport execute: age
smoothSolver:  Solving for age, Initial residual = 0.00227283, Final residual = 0.00020412, No Iterations 13

Time = 73

smoothSolver:  Solving for Ux, Initial residual = 0.000824874, Final residual = 6.84261e-05, No Iterations 5
smoothSolver:  Solving for Uy, Initial residual = 0.000807152, Final residual = 5.53966e-05, No Iterations 5
GAMG:  Solving for p, Initial residual = 0.000657319, Final residual = 3.4511e-05, No Iterations 3
time step continuity errors : sum local = 8.3724e-05, global = -9.58309e-06, cumulative = 0.0113603
smoothSolver:  Solving for omega, Initial residual = 9.05964e-06, Final residual = 4.26044e-07, No Iterations 2
smoothSolver:  Solving for k, Initial residual = 0.000189512, Final residual = 1.65751e-05, No Iterations 3
ExecutionTime = 0.93 s  ClockTime = 1 s

scalarTransport execute: age
smoothSolver:  Solving for age, Initial residual = 0.00223302, Final residual = 0.000197963, No Iterations 13

Time = 74

smoothSolver:  Solving for Ux, Initial residual = 0.000837614, Final residual = 6.52484e-05, No Iterations 5
smoothSolver:  Solving for Uy, Initial residual = 0.00065321, Final residual = 5.10102e-05, No Iterations 5
GAMG:  Solving for p, Initial residual = 0.000624334, Final residual = 3.1916e-05, No Iterations 3
time step continuity errors : sum local = 7.74381e-05, global = -8.9688e-06, cumulative = 0.0113514
smoothSolver:  Solving for omega, Initial residual = 8.0958e-06, Final residual = 3.91137e-07, No Iterations 2
smoothSolver:  Solving for k, Initial residual = 0.000180782, Final residual = 1.55679e-05, No Iterations 3
ExecutionTime = 0.95 s  ClockTime = 1 s

scalarTransport execute: age
smoothSolver:  Solving for age, Initial residual = 0.00219305, Final residual = 0.000194915, No Iterations 13

Time = 75

smoothSolver:  Solving for Ux, Initial residual = 0.000973503, Final residual = 7.61706e-05, No Iterations 1
smoothSolver:  Solving for Uy, Initial residual = 0.039219, Final residual = 0.000303226, No Iterations 1
GAMG:  Solving for p, Initial residual = 0.000377382, Final residual = 3.70619e-05, No Iterations 2
time step continuity errors : sum local = 8.99412e-05, global = -7.49127e-06, cumulative = 0.0113439
smoothSolver:  Solving for omega, Initial residual = 5.87429e-06, Final residual = 2.7634e-07, No Iterations 2
smoothSolver:  Solving for k, Initial residual = 0.000160293, Final residual = 1.46129e-05, No Iterations 3
ExecutionTime = 0.96 s  ClockTime = 1 s

scalarTransport execute: age
smoothSolver:  Solving for age, Initial residual = 0.00207386, Final residual = 0.00018317, No Iterations 13

Time = 76

smoothSolver:  Solving for Ux, Initial residual = 0.000754717, Final residual = 6.02645e-05, No Iterations 5
smoothSolver:  Solving for Uy, Initial residual = 0.000733197, Final residual = 4.67697e-05, No Iterations 5
GAMG:  Solving for p, Initial residual = 0.000590289, Final residual = 3.31327e-05, No Iterations 3
time step continuity errors : sum local = 8.04072e-05, global = -8.65149e-06, cumulative = 0.0113352
smoothSolver:  Solving for omega, Initial residual = 7.18045e-06, Final residual = 3.61141e-07, No Iterations 2
smoothSolver:  Solving for k, Initial residual = 0.000152614, Final residual = 1.36946e-05, No Iterations 3
ExecutionTime = 0.97 s  ClockTime = 1 s

scalarTransport execute: age
smoothSolver:  Solving for age, Initial residual = 0.00201404, Final residual = 0.000177054, No Iterations 13

Time = 77

smoothSolver:  Solving for Ux, Initial residual = 0.000685215, Final residual = 5.64778e-05, No Iterations 5
smoothSolver:  Solving for Uy, Initial residual = 0.00053413, Final residual = 4.42503e-05, No Iterations 5
GAMG:  Solving for p, Initial residual = 0.000548013, Final residual = 2.75833e-05, No Iterations 3
time step continuity errors : sum local = 6.69466e-05, global = -7.57231e-06, cumulative = 0.0113277
smoothSolver:  Solving for omega, Initial residual = 8.46835e-06, Final residual = 3.37035e-07, No Iterations 2
smoothSolver:  Solving for k, Initial residual = 0.000144212, Final residual = 1.28249e-05, No Iterations 3
ExecutionTime = 0.98 s  ClockTime = 1 s

scalarTransport execute: age
smoothSolver:  Solving for age, Initial residual = 0.00197955, Final residual = 0.000171434, No Iterations 13

Time = 78

smoothSolver:  Solving for Ux, Initial residual = 0.000654207, Final residual = 5.20852e-05, No Iterations 5
smoothSolver:  Solving for Uy, Initial residual = 0.000681579, Final residual = 6.59951e-05, No Iterations 4
GAMG:  Solving for p, Initial residual = 0.000493835, Final residual = 2.32409e-05, No Iterations 3
time step continuity errors : sum local = 5.64233e-05, global = -6.31348e-06, cumulative = 0.0113214
smoothSolver:  Solving for omega, Initial residual = 7.28278e-06, Final residual = 3.21795e-07, No Iterations 2
smoothSolver:  Solving for k, Initial residual = 0.000136753, Final residual = 1.19969e-05, No Iterations 3
ExecutionTime = 0.99 s  ClockTime = 1 s

scalarTransport execute: age
smoothSolver:  Solving for age, Initial residual = 0.00190968, Final residual = 0.000190948, No Iterations 12

Time = 79

smoothSolver:  Solving for Ux, Initial residual = 0.00149593, Final residual = 0.000109339, No Iterations 3
smoothSolver:  Solving for Uy, Initial residual = 0.000499912, Final residual = 4.0195e-05, No Iterations 5
GAMG:  Solving for p, Initial residual = 0.000470282, Final residual = 2.01622e-05, No Iterations 3
time step continuity errors : sum local = 4.89595e-05, global = -5.13195e-06, cumulative = 0.0113162
smoothSolver:  Solving for omega, Initial residual = 5.53389e-06, Final residual = 3.10944e-07, No Iterations 2
smoothSolver:  Solving for k, Initial residual = 0.000127219, Final residual = 1.12086e-05, No Iterations 3
ExecutionTime = 1.02 s  ClockTime = 1 s

scalarTransport execute: age
smoothSolver:  Solving for age, Initial residual = 0.00185401, Final residual = 0.00016071, No Iterations 13

Time = 80

smoothSolver:  Solving for Ux, Initial residual = 0.000605188, Final residual = 4.80318e-05, No Iterations 5
smoothSolver:  Solving for Uy, Initial residual = 0.000628169, Final residual = 5.67194e-05, No Iterations 4
GAMG:  Solving for p, Initial residual = 0.000487166, Final residual = 2.22529e-05, No Iterations 3
time step continuity errors : sum local = 5.40445e-05, global = -4.92982e-06, cumulative = 0.0113113
smoothSolver:  Solving for omega, Initial residual = 4.64228e-06, Final residual = 3.05702e-07, No Iterations 2
smoothSolver:  Solving for k, Initial residual = 0.00011833, Final residual = 1.04595e-05, No Iterations 3
ExecutionTime = 1.03 s  ClockTime = 1 s

scalarTransport execute: age
smoothSolver:  Solving for age, Initial residual = 0.0017803, Final residual = 0.000154065, No Iterations 13

Time = 81

smoothSolver:  Solving for Ux, Initial residual = 0.000516353, Final residual = 4.29672e-05, No Iterations 5
smoothSolver:  Solving for Uy, Initial residual = 0.000570278, Final residual = 5.56347e-05, No Iterations 4
GAMG:  Solving for p, Initial residual = 0.00044861, Final residual = 1.92727e-05, No Iterations 3
time step continuity errors : sum local = 4.68111e-05, global = -5.01328e-06, cumulative = 0.0113063
smoothSolver:  Solving for omega, Initial residual = 5.42708e-06, Final residual = 2.88293e-07, No Iterations 2
smoothSolver:  Solving for k, Initial residual = 0.000109339, Final residual = 9.7477e-06, No Iterations 3
ExecutionTime = 1.04 s  ClockTime = 1 s

scalarTransport execute: age
smoothSolver:  Solving for age, Initial residual = 0.00174158, Final residual = 0.000170119, No Iterations 12

Time = 82

smoothSolver:  Solving for Ux, Initial residual = 0.000478434, Final residual = 3.91122e-05, No Iterations 5
smoothSolver:  Solving for Uy, Initial residual = 0.000413032, Final residual = 3.39598e-05, No Iterations 5
GAMG:  Solving for p, Initial residual = 0.000424639, Final residual = 1.75285e-05, No Iterations 3
time step continuity errors : sum local = 4.25817e-05, global = -4.39468e-06, cumulative = 0.0113019
smoothSolver:  Solving for omega, Initial residual = 4.25654e-06, Final residual = 2.75977e-07, No Iterations 2
smoothSolver:  Solving for k, Initial residual = 9.81169e-05, Final residual = 9.0732e-06, No Iterations 3
ExecutionTime = 1.05 s  ClockTime = 1 s

scalarTransport execute: age
smoothSolver:  Solving for age, Initial residual = 0.00170902, Final residual = 0.000165177, No Iterations 12

Time = 83

smoothSolver:  Solving for Ux, Initial residual = 0.000452286, Final residual = 3.68054e-05, No Iterations 5
smoothSolver:  Solving for Uy, Initial residual = 0.000435729, Final residual = 3.09294e-05, No Iterations 5
GAMG:  Solving for p, Initial residual = 0.000389674, Final residual = 1.53666e-05, No Iterations 3
time step continuity errors : sum local = 3.73367e-05, global = -3.85723e-06, cumulative = 0.011298
smoothSolver:  Solving for omega, Initial residual = 4.43555e-06, Final residual = 2.65746e-07, No Iterations 2
smoothSolver:  Solving for k, Initial residual = 8.80797e-05, Final residual = 8.43502e-06, No Iterations 3
ExecutionTime = 1.06 s  ClockTime = 1 s

scalarTransport execute: age
smoothSolver:  Solving for age, Initial residual = 0.00165727, Final residual = 0.000159044, No Iterations 12

Time = 84

smoothSolver:  Solving for Ux, Initial residual = 0.00047233, Final residual = 3.36212e-05, No Iterations 5
smoothSolver:  Solving for Uy, Initial residual = 0.000392571, Final residual = 2.88683e-05, No Iterations 5
GAMG:  Solving for p, Initial residual = 0.000386491, Final residual = 1.44261e-05, No Iterations 3
time step continuity errors : sum local = 3.50566e-05, global = -3.44839e-06, cumulative = 0.0112946
smoothSolver:  Solving for omega, Initial residual = 5.25567e-06, Final residual = 2.55531e-07, No Iterations 2
smoothSolver:  Solving for k, Initial residual = 8.08811e-05, Final residual = 7.8334e-06, No Iterations 3
ExecutionTime = 1.08 s  ClockTime = 1 s

scalarTransport execute: age
smoothSolver:  Solving for age, Initial residual = 0.00161723, Final residual = 0.000155143, No Iterations 12

Time = 85

smoothSolver:  Solving for Ux, Initial residual = 0.000394249, Final residual = 3.12635e-05, No Iterations 5
smoothSolver:  Solving for Uy, Initial residual = 0.0003818, Final residual = 2.69267e-05, No Iterations 5
GAMG:  Solving for p, Initial residual = 0.000367525, Final residual = 1.36339e-05, No Iterations 3
time step continuity errors : sum local = 3.31359e-05, global = -3.2515e-06, cumulative = 0.0112913
smoothSolver:  Solving for omega, Initial residual = 5.26598e-06, Final residual = 2.4459e-07, No Iterations 2
smoothSolver:  Solving for k, Initial residual = 7.3538e-05, Final residual = 7.26698e-06, No Iterations 3
ExecutionTime = 1.09 s  ClockTime = 1 s

scalarTransport execute: age
smoothSolver:  Solving for age, Initial residual = 0.00156951, Final residual = 0.000150913, No Iterations 12

Time = 86

smoothSolver:  Solving for Ux, Initial residual = 0.00192571, Final residual = 0.000131034, No Iterations 2
smoothSolver:  Solving for Uy, Initial residual = 0.000894322, Final residual = 6.24682e-05, No Iterations 3
GAMG:  Solving for p, Initial residual = 0.000615354, Final residual = 5.47052e-05, No Iterations 2
time step continuity errors : sum local = 0.000132965, global = -2.81641e-06, cumulative = 0.0112885
smoothSolver:  Solving for omega, Initial residual = 1.30039e-05, Final residual = 9.53953e-07, No Iterations 1
smoothSolver:  Solving for k, Initial residual = 0.000413186, Final residual = 1.9456e-05, No Iterations 1
ExecutionTime = 1.1 s  ClockTime = 1 s

scalarTransport execute: age
smoothSolver:  Solving for age, Initial residual = 0.00155814, Final residual = 0.000148834, No Iterations 12

Time = 87

smoothSolver:  Solving for Ux, Initial residual = 0.000571702, Final residual = 4.6647e-05, No Iterations 4
smoothSolver:  Solving for Uy, Initial residual = 0.000410543, Final residual = 3.89386e-05, No Iterations 4
GAMG:  Solving for p, Initial residual = 0.00054489, Final residual = 2.33497e-05, No Iterations 3
time step continuity errors : sum local = 5.67525e-05, global = -4.33332e-06, cumulative = 0.0112842
smoothSolver:  Solving for omega, Initial residual = 1.37116e-05, Final residual = 7.51854e-07, No Iterations 1
smoothSolver:  Solving for k, Initial residual = 0.000305698, Final residual = 1.82242e-05, No Iterations 1
ExecutionTime = 1.11 s  ClockTime = 1 s

scalarTransport execute: age
smoothSolver:  Solving for age, Initial residual = 0.00154309, Final residual = 0.000145519, No Iterations 12

Time = 88

smoothSolver:  Solving for Ux, Initial residual = 0.000365961, Final residual = 2.62208e-05, No Iterations 5
smoothSolver:  Solving for Uy, Initial residual = 0.000389539, Final residual = 3.29522e-05, No Iterations 4
GAMG:  Solving for p, Initial residual = 0.000374669, Final residual = 3.45281e-05, No Iterations 2
time step continuity errors : sum local = 8.39371e-05, global = -4.53316e-06, cumulative = 0.0112796
smoothSolver:  Solving for omega, Initial residual = 8.66083e-06, Final residual = 5.72088e-07, No Iterations 1
smoothSolver:  Solving for k, Initial residual = 0.000127567, Final residual = 1.02714e-05, No Iterations 2
ExecutionTime = 1.12 s  ClockTime = 1 s

scalarTransport execute: age
smoothSolver:  Solving for age, Initial residual = 0.00146227, Final residual = 0.000126921, No Iterations 13

Time = 89

smoothSolver:  Solving for Ux, Initial residual = 0.000328663, Final residual = 2.29574e-05, No Iterations 5
smoothSolver:  Solving for Uy, Initial residual = 0.000266465, Final residual = 2.00456e-05, No Iterations 5
GAMG:  Solving for p, Initial residual = 0.000334816, Final residual = 1.30874e-05, No Iterations 3
time step continuity errors : sum local = 3.18193e-05, global = -2.96663e-06, cumulative = 0.0112767
smoothSolver:  Solving for omega, Initial residual = 5.33036e-06, Final residual = 2.46621e-07, No Iterations 2
smoothSolver:  Solving for k, Initial residual = 7.77307e-05, Final residual = 5.86973e-06, No Iterations 3
ExecutionTime = 1.13 s  ClockTime = 1 s

scalarTransport execute: age
smoothSolver:  Solving for age, Initial residual = 0.0014337, Final residual = 0.000130026, No Iterations 13

Time = 90

smoothSolver:  Solving for Ux, Initial residual = 0.000286407, Final residual = 2.05156e-05, No Iterations 5
smoothSolver:  Solving for Uy, Initial residual = 0.00023663, Final residual = 1.87043e-05, No Iterations 5
GAMG:  Solving for p, Initial residual = 0.000277436, Final residual = 2.58604e-05, No Iterations 2
time step continuity errors : sum local = 6.28815e-05, global = -2.28183e-06, cumulative = 0.0112744
smoothSolver:  Solving for omega, Initial residual = 5.24708e-06, Final residual = 2.13714e-07, No Iterations 2
smoothSolver:  Solving for k, Initial residual = 5.96443e-05, Final residual = 5.42954e-06, No Iterations 3
ExecutionTime = 1.14 s  ClockTime = 1 s

scalarTransport execute: age
smoothSolver:  Solving for age, Initial residual = 0.00138459, Final residual = 0.000129846, No Iterations 13

Time = 91

smoothSolver:  Solving for Ux, Initial residual = 0.000259403, Final residual = 1.92281e-05, No Iterations 5
smoothSolver:  Solving for Uy, Initial residual = 0.000213059, Final residual = 1.69923e-05, No Iterations 5
GAMG:  Solving for p, Initial residual = 0.000271602, Final residual = 9.64136e-06, No Iterations 3
time step continuity errors : sum local = 2.34452e-05, global = -1.95883e-06, cumulative = 0.0112724
smoothSolver:  Solving for omega, Initial residual = 4.04796e-06, Final residual = 1.78448e-07, No Iterations 2
smoothSolver:  Solving for k, Initial residual = 5.23039e-05, Final residual = 5.0173e-06, No Iterations 3
ExecutionTime = 1.16 s  ClockTime = 2 s

scalarTransport execute: age
smoothSolver:  Solving for age, Initial residual = 0.00135155, Final residual = 0.000129897, No Iterations 13

Time = 92

smoothSolver:  Solving for Ux, Initial residual = 0.00023802, Final residual = 1.74864e-05, No Iterations 5
smoothSolver:  Solving for Uy, Initial residual = 0.000193391, Final residual = 1.524e-05, No Iterations 5
GAMG:  Solving for p, Initial residual = 0.000229193, Final residual = 2.20578e-05, No Iterations 2
time step continuity errors : sum local = 5.36434e-05, global = -1.37609e-06, cumulative = 0.0112711
smoothSolver:  Solving for omega, Initial residual = 4.64657e-06, Final residual = 1.778e-07, No Iterations 2
smoothSolver:  Solving for k, Initial residual = 4.82882e-05, Final residual = 4.63234e-06, No Iterations 3
ExecutionTime = 1.17 s  ClockTime = 2 s

scalarTransport execute: age
smoothSolver:  Solving for age, Initial residual = 0.00132322, Final residual = 0.000128698, No Iterations 13

Time = 93

smoothSolver:  Solving for Ux, Initial residual = 0.00097781, Final residual = 6.07506e-05, No Iterations 2
smoothSolver:  Solving for Uy, Initial residual = 0.000441397, Final residual = 3.52553e-05, No Iterations 3
GAMG:  Solving for p, Initial residual = 0.00021391, Final residual = 2.10268e-05, No Iterations 2
time step continuity errors : sum local = 5.11382e-05, global = -5.85693e-07, cumulative = 0.0112705
smoothSolver:  Solving for omega, Initial residual = 4.76217e-06, Final residual = 1.59963e-07, No Iterations 2
smoothSolver:  Solving for k, Initial residual = 4.55311e-05, Final residual = 4.27425e-06, No Iterations 3
ExecutionTime = 1.18 s  ClockTime = 2 s

scalarTransport execute: age
smoothSolver:  Solving for age, Initial residual = 0.00130331, Final residual = 0.000128945, No Iterations 13

Time = 94

smoothSolver:  Solving for Ux, Initial residual = 0.000210735, Final residual = 1.58203e-05, No Iterations 5
smoothSolver:  Solving for Uy, Initial residual = 0.000166708, Final residual = 1.27178e-05, No Iterations 5
GAMG:  Solving for p, Initial residual = 0.000216978, Final residual = 8.63434e-06, No Iterations 3
time step continuity errors : sum local = 2.09997e-05, global = -4.61327e-07, cumulative = 0.01127
smoothSolver:  Solving for omega, Initial residual = 7.46951e-06, Final residual = 6.78631e-07, No Iterations 1
smoothSolver:  Solving for k, Initial residual = 4.35244e-05, Final residual = 3.94091e-06, No Iterations 3
ExecutionTime = 1.19 s  ClockTime = 2 s

scalarTransport execute: age
smoothSolver:  Solving for age, Initial residual = 0.00128278, Final residual = 0.000126183, No Iterations 13

Time = 95

smoothSolver:  Solving for Ux, Initial residual = 0.000194058, Final residual = 1.39342e-05, No Iterations 5
smoothSolver:  Solving for Uy, Initial residual = 0.000183725, Final residual = 1.81286e-05, No Iterations 4
GAMG:  Solving for p, Initial residual = 0.000185027, Final residual = 1.83161e-05, No Iterations 2
[...]

smoothSolver:  Solving for Ux, Initial residual = 3.12168e-05, Final residual = 1.94501e-06, No Iterations 2
smoothSolver:  Solving for Uy, Initial residual = 6.26989e-05, Final residual = 5.16319e-06, No Iterations 1
GAMG:  Solving for p, Initial residual = 6.01204e-05, Final residual = 4.64446e-06, No Iterations 2
time step continuity errors : sum local = 1.12888e-05, global = 1.49091e-07, cumulative = 0.0113036
smoothSolver:  Solving for omega, Initial residual = 2.11021e-06, Final residual = 1.27894e-07, No Iterations 1
smoothSolver:  Solving for k, Initial residual = 1.77189e-06, Final residual = 1.25951e-08, No Iterations 1
ExecutionTime = 21.57 s  ClockTime = 22 s

scalarTransport execute: age
smoothSolver:  Solving for age, Initial residual = 2.23825e-05, Final residual = 2.07144e-06, No Iterations 11

Time = 1978

smoothSolver:  Solving for Ux, Initial residual = 3.92818e-05, Final residual = 1.93882e-06, No Iterations 2
smoothSolver:  Solving for Uy, Initial residual = 6.52078e-05, Final residual = 5.07311e-06, No Iterations 1
GAMG:  Solving for p, Initial residual = 5.56624e-05, Final residual = 3.53015e-06, No Iterations 2
time step continuity errors : sum local = 8.5803e-06, global = 1.41691e-07, cumulative = 0.0113037
smoothSolver:  Solving for omega, Initial residual = 1.57898e-06, Final residual = 8.95144e-08, No Iterations 1
smoothSolver:  Solving for k, Initial residual = 1.84412e-06, Final residual = 1.143e-08, No Iterations 1
ExecutionTime = 21.58 s  ClockTime = 22 s

scalarTransport execute: age
smoothSolver:  Solving for age, Initial residual = 2.27274e-05, Final residual = 2.02663e-06, No Iterations 11

Time = 1979

smoothSolver:  Solving for Ux, Initial residual = 5.09289e-05, Final residual = 4.00162e-06, No Iterations 1
smoothSolver:  Solving for Uy, Initial residual = 0.000337375, Final residual = 3.98259e-06, No Iterations 1
GAMG:  Solving for p, Initial residual = 5.20406e-05, Final residual = 3.6242e-06, No Iterations 2
time step continuity errors : sum local = 8.80893e-06, global = 1.38709e-07, cumulative = 0.0113038
smoothSolver:  Solving for omega, Initial residual = 1.80599e-06, Final residual = 1.50167e-07, No Iterations 1
smoothSolver:  Solving for k, Initial residual = 3.47963e-06, Final residual = 1.41921e-08, No Iterations 1
ExecutionTime = 21.59 s  ClockTime = 22 s

scalarTransport execute: age
smoothSolver:  Solving for age, Initial residual = 2.20615e-05, Final residual = 2.0164e-06, No Iterations 11

Time = 1980

smoothSolver:  Solving for Ux, Initial residual = 2.80226e-05, Final residual = 1.62409e-06, No Iterations 2
smoothSolver:  Solving for Uy, Initial residual = 4.58199e-05, Final residual = 1.88792e-06, No Iterations 2
GAMG:  Solving for p, Initial residual = 5.1367e-05, Final residual = 3.78494e-06, No Iterations 2
time step continuity errors : sum local = 9.19966e-06, global = 1.42031e-07, cumulative = 0.011304
smoothSolver:  Solving for omega, Initial residual = 1.93054e-06, Final residual = 1.47341e-07, No Iterations 1
smoothSolver:  Solving for k, Initial residual = 2.81445e-06, Final residual = 1.20867e-08, No Iterations 1
ExecutionTime = 21.6 s  ClockTime = 22 s

scalarTransport execute: age
smoothSolver:  Solving for age, Initial residual = 2.24723e-05, Final residual = 2.00135e-06, No Iterations 10

Time = 1981

smoothSolver:  Solving for Ux, Initial residual = 0.000273322, Final residual = 5.15376e-06, No Iterations 1
smoothSolver:  Solving for Uy, Initial residual = 0.000139481, Final residual = 4.87619e-06, No Iterations 1
GAMG:  Solving for p, Initial residual = 6.06937e-05, Final residual = 4.89415e-06, No Iterations 2
time step continuity errors : sum local = 1.18954e-05, global = 1.55274e-07, cumulative = 0.0113041
smoothSolver:  Solving for omega, Initial residual = 2.24432e-06, Final residual = 1.71625e-07, No Iterations 1
smoothSolver:  Solving for k, Initial residual = 2.34576e-06, Final residual = 1.91515e-08, No Iterations 1
ExecutionTime = 21.61 s  ClockTime = 22 s

scalarTransport execute: age
smoothSolver:  Solving for age, Initial residual = 2.04049e-05, Final residual = 1.89826e-06, No Iterations 11

Time = 1982

smoothSolver:  Solving for Ux, Initial residual = 0.000278644, Final residual = 3.54919e-06, No Iterations 1
smoothSolver:  Solving for Uy, Initial residual = 0.00158465, Final residual = 4.94888e-06, No Iterations 1
GAMG:  Solving for p, Initial residual = 5.28602e-05, Final residual = 3.1878e-06, No Iterations 2
time step continuity errors : sum local = 7.74809e-06, global = 1.58105e-07, cumulative = 0.0113043
smoothSolver:  Solving for omega, Initial residual = 2.90265e-06, Final residual = 1.64224e-07, No Iterations 1
smoothSolver:  Solving for k, Initial residual = 5.30863e-06, Final residual = 1.86321e-08, No Iterations 1
ExecutionTime = 21.62 s  ClockTime = 22 s

scalarTransport execute: age
smoothSolver:  Solving for age, Initial residual = 2.33917e-05, Final residual = 2.2323e-06, No Iterations 10

Time = 1983

smoothSolver:  Solving for Ux, Initial residual = 2.37228e-05, Final residual = 1.52023e-06, No Iterations 2
smoothSolver:  Solving for Uy, Initial residual = 2.68178e-05, Final residual = 1.53866e-06, No Iterations 2
GAMG:  Solving for p, Initial residual = 4.32562e-05, Final residual = 2.86966e-06, No Iterations 2
time step continuity errors : sum local = 6.97487e-06, global = 1.40269e-07, cumulative = 0.0113044
smoothSolver:  Solving for omega, Initial residual = 2.32148e-06, Final residual = 1.5119e-07, No Iterations 1
smoothSolver:  Solving for k, Initial residual = 3.31868e-06, Final residual = 1.12859e-08, No Iterations 1
ExecutionTime = 21.63 s  ClockTime = 22 s

scalarTransport execute: age
smoothSolver:  Solving for age, Initial residual = 2.53368e-05, Final residual = 2.45229e-06, No Iterations 9

Time = 1984

smoothSolver:  Solving for Ux, Initial residual = 0.000106294, Final residual = 2.81465e-06, No Iterations 1
smoothSolver:  Solving for Uy, Initial residual = 0.000334486, Final residual = 4.2895e-06, No Iterations 1
GAMG:  Solving for p, Initial residual = 4.82088e-05, Final residual = 3.0189e-06, No Iterations 2
time step continuity errors : sum local = 7.33755e-06, global = 9.90395e-08, cumulative = 0.0113045
smoothSolver:  Solving for omega, Initial residual = 1.17999e-06, Final residual = 7.78357e-08, No Iterations 1
smoothSolver:  Solving for k, Initial residual = 4.45337e-06, Final residual = 2.78932e-08, No Iterations 1
ExecutionTime = 21.64 s  ClockTime = 22 s

scalarTransport execute: age
smoothSolver:  Solving for age, Initial residual = 2.56191e-05, Final residual = 2.46503e-06, No Iterations 11

Time = 1985

smoothSolver:  Solving for Ux, Initial residual = 2.98908e-05, Final residual = 2.00268e-06, No Iterations 2
smoothSolver:  Solving for Uy, Initial residual = 4.72923e-05, Final residual = 2.17883e-06, No Iterations 2
GAMG:  Solving for p, Initial residual = 5.78113e-05, Final residual = 3.4176e-06, No Iterations 2
time step continuity errors : sum local = 8.30662e-06, global = 6.40156e-08, cumulative = 0.0113046
smoothSolver:  Solving for omega, Initial residual = 1.41428e-06, Final residual = 1.21772e-07, No Iterations 1
smoothSolver:  Solving for k, Initial residual = 3.64184e-06, Final residual = 2.13737e-08, No Iterations 1
ExecutionTime = 21.65 s  ClockTime = 22 s

scalarTransport execute: age
smoothSolver:  Solving for age, Initial residual = 2.55351e-05, Final residual = 2.31479e-06, No Iterations 11

Time = 1986

smoothSolver:  Solving for Ux, Initial residual = 2.61588e-05, Final residual = 1.56295e-06, No Iterations 2
smoothSolver:  Solving for Uy, Initial residual = 4.03998e-05, Final residual = 2.04741e-06, No Iterations 2
GAMG:  Solving for p, Initial residual = 4.68254e-05, Final residual = 3.17106e-06, No Iterations 2
time step continuity errors : sum local = 7.70738e-06, global = 3.25871e-08, cumulative = 0.0113046
smoothSolver:  Solving for omega, Initial residual = 2.44633e-06, Final residual = 1.48092e-07, No Iterations 1
smoothSolver:  Solving for k, Initial residual = 1.75867e-06, Final residual = 1.27093e-08, No Iterations 1
ExecutionTime = 21.66 s  ClockTime = 22 s

scalarTransport execute: age
smoothSolver:  Solving for age, Initial residual = 1.94767e-05, Final residual = 1.91853e-06, No Iterations 12

Time = 1987

smoothSolver:  Solving for Ux, Initial residual = 4.23464e-05, Final residual = 1.94302e-06, No Iterations 2
smoothSolver:  Solving for Uy, Initial residual = 3.17395e-05, Final residual = 1.58844e-06, No Iterations 2
GAMG:  Solving for p, Initial residual = 5.26659e-05, Final residual = 4.83761e-06, No Iterations 2
time step continuity errors : sum local = 1.17579e-05, global = 6.6048e-09, cumulative = 0.0113046
smoothSolver:  Solving for omega, Initial residual = 3.19867e-06, Final residual = 1.81467e-07, No Iterations 1
smoothSolver:  Solving for k, Initial residual = 1.58343e-06, Final residual = 1.30769e-08, No Iterations 1
ExecutionTime = 21.67 s  ClockTime = 22 s

scalarTransport execute: age
smoothSolver:  Solving for age, Initial residual = 1.71288e-05, Final residual = 1.60059e-06, No Iterations 13

Time = 1988

smoothSolver:  Solving for Ux, Initial residual = 4.63066e-05, Final residual = 4.26104e-06, No Iterations 1
smoothSolver:  Solving for Uy, Initial residual = 0.00011036, Final residual = 4.40894e-06, No Iterations 1
GAMG:  Solving for p, Initial residual = 5.35655e-05, Final residual = 3.34812e-06, No Iterations 2
time step continuity errors : sum local = 8.1377e-06, global = 1.56266e-08, cumulative = 0.0113047
smoothSolver:  Solving for omega, Initial residual = 2.58854e-06, Final residual = 1.50281e-07, No Iterations 1
smoothSolver:  Solving for k, Initial residual = 2.4427e-06, Final residual = 1.01275e-08, No Iterations 1
ExecutionTime = 21.68 s  ClockTime = 22 s

scalarTransport execute: age
smoothSolver:  Solving for age, Initial residual = 1.87219e-05, Final residual = 1.74213e-06, No Iterations 12

Time = 1989

smoothSolver:  Solving for Ux, Initial residual = 2.23963e-05, Final residual = 1.49643e-06, No Iterations 2
smoothSolver:  Solving for Uy, Initial residual = 2.82197e-05, Final residual = 1.42152e-06, No Iterations 2
GAMG:  Solving for p, Initial residual = 4.30584e-05, Final residual = 2.66439e-06, No Iterations 2
time step continuity errors : sum local = 6.47589e-06, global = 2.3299e-08, cumulative = 0.0113047
smoothSolver:  Solving for omega, Initial residual = 1.84178e-06, Final residual = 1.05635e-07, No Iterations 1
smoothSolver:  Solving for k, Initial residual = 1.73311e-06, Final residual = 6.83613e-09, No Iterations 1
ExecutionTime = 21.69 s  ClockTime = 22 s

scalarTransport execute: age
smoothSolver:  Solving for age, Initial residual = 1.91792e-05, Final residual = 1.87364e-06, No Iterations 11

Time = 1990

smoothSolver:  Solving for Ux, Initial residual = 4.87167e-05, Final residual = 4.70587e-06, No Iterations 1
smoothSolver:  Solving for Uy, Initial residual = 5.97455e-05, Final residual = 4.03887e-06, No Iterations 1
GAMG:  Solving for p, Initial residual = 6.0746e-05, Final residual = 4.67731e-06, No Iterations 2
time step continuity errors : sum local = 1.13684e-05, global = 2.62825e-08, cumulative = 0.0113047
smoothSolver:  Solving for omega, Initial residual = 1.85896e-06, Final residual = 1.21687e-07, No Iterations 1
smoothSolver:  Solving for k, Initial residual = 2.1602e-06, Final residual = 1.46928e-08, No Iterations 1
ExecutionTime = 21.7 s  ClockTime = 22 s

scalarTransport execute: age
smoothSolver:  Solving for age, Initial residual = 1.72717e-05, Final residual = 1.53937e-06, No Iterations 13

Time = 1991

smoothSolver:  Solving for Ux, Initial residual = 3.32167e-05, Final residual = 1.8734e-06, No Iterations 2
smoothSolver:  Solving for Uy, Initial residual = 4.04633e-05, Final residual = 1.87033e-06, No Iterations 2
GAMG:  Solving for p, Initial residual = 5.52176e-05, Final residual = 3.49042e-06, No Iterations 2
time step continuity errors : sum local = 8.48363e-06, global = 2.25928e-08, cumulative = 0.0113047
smoothSolver:  Solving for omega, Initial residual = 2.90628e-06, Final residual = 1.94834e-07, No Iterations 1
smoothSolver:  Solving for k, Initial residual = 1.66706e-06, Final residual = 1.02269e-08, No Iterations 1
ExecutionTime = 21.72 s  ClockTime = 22 s

scalarTransport execute: age
smoothSolver:  Solving for age, Initial residual = 1.76386e-05, Final residual = 1.68403e-06, No Iterations 12

Time = 1992

smoothSolver:  Solving for Ux, Initial residual = 5.01695e-05, Final residual = 3.91792e-06, No Iterations 1
smoothSolver:  Solving for Uy, Initial residual = 2.63206e-05, Final residual = 1.24161e-06, No Iterations 2
GAMG:  Solving for p, Initial residual = 4.51622e-05, Final residual = 3.57269e-06, No Iterations 2
time step continuity errors : sum local = 8.68363e-06, global = -4.00868e-10, cumulative = 0.0113047
smoothSolver:  Solving for omega, Initial residual = 2.61238e-06, Final residual = 1.58414e-07, No Iterations 1
smoothSolver:  Solving for k, Initial residual = 1.28948e-06, Final residual = 8.03461e-09, No Iterations 1
ExecutionTime = 21.73 s  ClockTime = 22 s

scalarTransport execute: age
smoothSolver:  Solving for age, Initial residual = 1.61713e-05, Final residual = 1.53747e-06, No Iterations 11

Time = 1993

smoothSolver:  Solving for Ux, Initial residual = 2.9435e-05, Final residual = 1.39458e-06, No Iterations 2
smoothSolver:  Solving for Uy, Initial residual = 2.20927e-05, Final residual = 1.29748e-06, No Iterations 2
GAMG:  Solving for p, Initial residual = 4.9368e-05, Final residual = 3.50202e-06, No Iterations 2
time step continuity errors : sum local = 8.5119e-06, global = -2.52218e-08, cumulative = 0.0113047
smoothSolver:  Solving for omega, Initial residual = 1.81135e-06, Final residual = 1.29525e-07, No Iterations 1
smoothSolver:  Solving for k, Initial residual = 1.26139e-06, Final residual = 8.69436e-09, No Iterations 1
ExecutionTime = 21.74 s  ClockTime = 22 s

scalarTransport execute: age
smoothSolver:  Solving for age, Initial residual = 1.52865e-05, Final residual = 1.46023e-06, No Iterations 11

Time = 1994

smoothSolver:  Solving for Ux, Initial residual = 1.9239e-05, Final residual = 1.4417e-06, No Iterations 2
smoothSolver:  Solving for Uy, Initial residual = 2.39247e-05, Final residual = 1.56703e-06, No Iterations 2
GAMG:  Solving for p, Initial residual = 3.99927e-05, Final residual = 3.12986e-06, No Iterations 2
time step continuity errors : sum local = 7.60731e-06, global = -3.26606e-08, cumulative = 0.0113047
smoothSolver:  Solving for omega, Initial residual = 1.88776e-06, Final residual = 1.19919e-07, No Iterations 1
smoothSolver:  Solving for k, Initial residual = 9.32037e-07, Final residual = 8.42033e-09, No Iterations 1
ExecutionTime = 21.75 s  ClockTime = 22 s

scalarTransport execute: age
smoothSolver:  Solving for age, Initial residual = 1.45282e-05, Final residual = 1.26951e-06, No Iterations 11

Time = 1995

smoothSolver:  Solving for Ux, Initial residual = 2.19531e-05, Final residual = 1.07663e-06, No Iterations 2
smoothSolver:  Solving for Uy, Initial residual = 7.39957e-05, Final residual = 3.32959e-06, No Iterations 1
GAMG:  Solving for p, Initial residual = 4.18156e-05, Final residual = 2.72671e-06, No Iterations 2
time step continuity errors : sum local = 6.62739e-06, global = -2.58356e-08, cumulative = 0.0113046
smoothSolver:  Solving for omega, Initial residual = 1.57753e-06, Final residual = 1.17582e-07, No Iterations 1
smoothSolver:  Solving for k, Initial residual = 1.4061e-06, Final residual = 8.03421e-09, No Iterations 1
ExecutionTime = 21.76 s  ClockTime = 22 s

scalarTransport execute: age
smoothSolver:  Solving for age, Initial residual = 1.65024e-05, Final residual = 1.61372e-06, No Iterations 8

Time = 1996

smoothSolver:  Solving for Ux, Initial residual = 0.000263959, Final residual = 4.93872e-06, No Iterations 1
smoothSolver:  Solving for Uy, Initial residual = 0.000738577, Final residual = 4.88396e-06, No Iterations 1
GAMG:  Solving for p, Initial residual = 6.71474e-05, Final residual = 5.10546e-06, No Iterations 2
time step continuity errors : sum local = 1.24091e-05, global = -2.77212e-08, cumulative = 0.0113046
smoothSolver:  Solving for omega, Initial residual = 1.51204e-06, Final residual = 9.98612e-08, No Iterations 1
smoothSolver:  Solving for k, Initial residual = 4.05709e-06, Final residual = 2.96648e-08, No Iterations 1
ExecutionTime = 21.77 s  ClockTime = 22 s

scalarTransport execute: age
smoothSolver:  Solving for age, Initial residual = 2.26205e-05, Final residual = 2.05068e-06, No Iterations 11

Time = 1997

smoothSolver:  Solving for Ux, Initial residual = 4.2269e-05, Final residual = 1.93291e-06, No Iterations 2
smoothSolver:  Solving for Uy, Initial residual = 5.5853e-05, Final residual = 5.55293e-06, No Iterations 1
GAMG:  Solving for p, Initial residual = 6.05688e-05, Final residual = 3.87542e-06, No Iterations 2
time step continuity errors : sum local = 9.4195e-06, global = -3.40936e-08, cumulative = 0.0113046
smoothSolver:  Solving for omega, Initial residual = 2.06432e-06, Final residual = 1.8106e-07, No Iterations 1
smoothSolver:  Solving for k, Initial residual = 3.44527e-06, Final residual = 2.1185e-08, No Iterations 1
ExecutionTime = 21.78 s  ClockTime = 22 s

scalarTransport execute: age
smoothSolver:  Solving for age, Initial residual = 2.04815e-05, Final residual = 1.88949e-06, No Iterations 12

Time = 1998

smoothSolver:  Solving for Ux, Initial residual = 0.000393371, Final residual = 2.68232e-05, No Iterations 1
smoothSolver:  Solving for Uy, Initial residual = 0.000163426, Final residual = 1.23138e-05, No Iterations 1
GAMG:  Solving for p, Initial residual = 0.000301418, Final residual = 2.00215e-05, No Iterations 2
time step continuity errors : sum local = 4.86611e-05, global = -6.38592e-09, cumulative = 0.0113046
smoothSolver:  Solving for omega, Initial residual = 8.04101e-06, Final residual = 3.99665e-07, No Iterations 1
smoothSolver:  Solving for k, Initial residual = 8.10494e-05, Final residual = 3.21105e-07, No Iterations 1
ExecutionTime = 21.79 s  ClockTime = 22 s

scalarTransport execute: age
smoothSolver:  Solving for age, Initial residual = 3.95798e-05, Final residual = 3.48455e-06, No Iterations 9

Time = 1999

smoothSolver:  Solving for Ux, Initial residual = 0.000242966, Final residual = 1.23694e-05, No Iterations 2
smoothSolver:  Solving for Uy, Initial residual = 0.000198099, Final residual = 1.15755e-05, No Iterations 2
GAMG:  Solving for p, Initial residual = 0.00024375, Final residual = 1.80838e-05, No Iterations 2
time step continuity errors : sum local = 4.39504e-05, global = -3.62849e-07, cumulative = 0.0113042
smoothSolver:  Solving for omega, Initial residual = 1.10342e-05, Final residual = 4.54601e-07, No Iterations 1
smoothSolver:  Solving for k, Initial residual = 4.99373e-05, Final residual = 2.03743e-07, No Iterations 1
ExecutionTime = 21.8 s  ClockTime = 22 s

scalarTransport execute: age
smoothSolver:  Solving for age, Initial residual = 5.31801e-05, Final residual = 5.1195e-06, No Iterations 8

Time = 2000

smoothSolver:  Solving for Ux, Initial residual = 9.97891e-05, Final residual = 8.34983e-06, No Iterations 2
smoothSolver:  Solving for Uy, Initial residual = 0.000103704, Final residual = 8.20617e-06, No Iterations 2
GAMG:  Solving for p, Initial residual = 0.000128479, Final residual = 7.00482e-06, No Iterations 2
time step continuity errors : sum local = 1.70249e-05, global = -7.41207e-07, cumulative = 0.0113035
smoothSolver:  Solving for omega, Initial residual = 7.38687e-06, Final residual = 3.14528e-07, No Iterations 1
smoothSolver:  Solving for k, Initial residual = 2.29958e-05, Final residual = 1.45845e-07, No Iterations 1
ExecutionTime = 21.83 s  ClockTime = 22 s

scalarTransport execute: age
smoothSolver:  Solving for age, Initial residual = 4.0907e-05, Final residual = 3.89516e-06, No Iterations 11

End

