/*---------------------------------------------------------------------------*\
| =========                 |                                                 |
| \\      /  F ield         | OpenFOAM: The Open Source CFD Toolbox           |
|  \\    /   O peration     | Version:  v2012                                 |
|   \\  /    A nd           | Website:  www.openfoam.com                      |
|    \\/     M anipulation  |                                                 |
\*---------------------------------------------------------------------------*/
Build  : _7bdb509494-20201222 OPENFOAM=2012
Arch   : "LSB;label=32;scalar=64"
Exec   : simpleFoam
Date   : Feb 23 2023
Time   : 22:54:08
Host   : johnsDesktop
PID    : 17080
I/O    : uncollated
Case   : /home/john/of_runs/cases/dbl_0_46_6-00400_9
nProcs : 1
trapFpe: Floating point exception trapping enabled (FOAM_SIGFPE).
fileModificationChecking : Monitoring run-time modified files using timeStampMaster (fileModificationSkew 5, maxFileModificationPolls 20)
allowSystemOperations : Allowing user-supplied system call operations

// * * * * * * * * * * * * * * * * * * * * * * * * * * * * * * * * * * * * * //
Create time

Create mesh for time = 0


SIMPLE: convergence criteria
    field p	 tolerance 1e-06
    field U	 tolerance 1e-06
    field "(k|epsilon|omega|f|v2|age)"	 tolerance 1e-05

Reading field p

Reading field U

Reading/calculating face flux field phi

Selecting incompressible transport model Newtonian
Selecting turbulence model type RAS
Selecting RAS turbulence model kOmegaSST
Selecting patchDistMethod meshWave
RAS
{
    RASModel        kOmegaSST;
    turbulence      on;
    printCoeffs     on;
    alphaK1         0.85;
    alphaK2         1;
    alphaOmega1     0.5;
    alphaOmega2     0.856;
    gamma1          0.555556;
    gamma2          0.44;
    beta1           0.075;
    beta2           0.0828;
    betaStar        0.09;
    a1              0.31;
    b1              1;
    c1              10;
    F3              false;
    decayControl    false;
    kInf            0;
    omegaInf        0;
}

No MRF models present

No finite volume options present

Starting time loop

Selecting finite volume options type scalarSemiImplicitSource
    Source: unitySource
    - selecting all cells
    - selected 6532 cell(s) with volume 0.03154
Time = 1

smoothSolver:  Solving for Ux, Initial residual = 0, Final residual = 0, No Iterations 0
smoothSolver:  Solving for Uy, Initial residual = 1, Final residual = 0.0701465, No Iterations 2
GAMG:  Solving for p, Initial residual = 1, Final residual = 0.0835967, No Iterations 6
time step continuity errors : sum local = 0.005301, global = -0.000786915, cumulative = -0.000786915
smoothSolver:  Solving for omega, Initial residual = 0.25702, Final residual = 0.0121029, No Iterations 3
smoothSolver:  Solving for k, Initial residual = 1, Final residual = 0.0789385, No Iterations 3
ExecutionTime = 0.05 s  ClockTime = 0 s

scalarTransport execute: age
smoothSolver:  Solving for age, Initial residual = 1, Final residual = 0.0899158, No Iterations 6

Time = 2

smoothSolver:  Solving for Ux, Initial residual = 0.562369, Final residual = 0.0476728, No Iterations 6
smoothSolver:  Solving for Uy, Initial residual = 0.279974, Final residual = 0.0192397, No Iterations 6
GAMG:  Solving for p, Initial residual = 0.0522244, Final residual = 0.00438766, No Iterations 3
time step continuity errors : sum local = 0.060226, global = 0.00459696, cumulative = 0.00381005
smoothSolver:  Solving for omega, Initial residual = 0.258482, Final residual = 0.0236976, No Iterations 3
smoothSolver:  Solving for k, Initial residual = 0.597128, Final residual = 0.0545792, No Iterations 4
ExecutionTime = 0.06 s  ClockTime = 0 s

scalarTransport execute: age
smoothSolver:  Solving for age, Initial residual = 0.604235, Final residual = 0.0559592, No Iterations 8

Time = 3

smoothSolver:  Solving for Ux, Initial residual = 0.193529, Final residual = 0.0182891, No Iterations 5
smoothSolver:  Solving for Uy, Initial residual = 0.105566, Final residual = 0.00926356, No Iterations 5
GAMG:  Solving for p, Initial residual = 0.0546768, Final residual = 0.00348964, No Iterations 3
time step continuity errors : sum local = 0.0200386, global = 0.00312786, cumulative = 0.00693791
smoothSolver:  Solving for omega, Initial residual = 0.253905, Final residual = 0.023947, No Iterations 4
smoothSolver:  Solving for k, Initial residual = 0.501546, Final residual = 0.0370241, No Iterations 5
ExecutionTime = 0.08 s  ClockTime = 0 s

scalarTransport execute: age
smoothSolver:  Solving for age, Initial residual = 0.408712, Final residual = 0.0359864, No Iterations 9

Time = 4

smoothSolver:  Solving for Ux, Initial residual = 0.0977805, Final residual = 0.00690243, No Iterations 5
smoothSolver:  Solving for Uy, Initial residual = 0.0511997, Final residual = 0.00503526, No Iterations 4
GAMG:  Solving for p, Initial residual = 0.0764051, Final residual = 0.00312115, No Iterations 3
time step continuity errors : sum local = 0.0101209, global = 0.000621869, cumulative = 0.00755977
smoothSolver:  Solving for omega, Initial residual = 0.143368, Final residual = 0.00965413, No Iterations 5
smoothSolver:  Solving for k, Initial residual = 0.424988, Final residual = 0.0354047, No Iterations 5
ExecutionTime = 0.09 s  ClockTime = 0 s

scalarTransport execute: age
smoothSolver:  Solving for age, Initial residual = 0.298474, Final residual = 0.0282415, No Iterations 8

Time = 5

smoothSolver:  Solving for Ux, Initial residual = 0.059815, Final residual = 0.00503007, No Iterations 5
smoothSolver:  Solving for Uy, Initial residual = 0.0327166, Final residual = 0.00229356, No Iterations 5
GAMG:  Solving for p, Initial residual = 0.0776101, Final residual = 0.00324515, No Iterations 2
time step continuity errors : sum local = 0.00854968, global = -0.000400356, cumulative = 0.00715942
smoothSolver:  Solving for omega, Initial residual = 0.0995634, Final residual = 0.00735195, No Iterations 5
smoothSolver:  Solving for k, Initial residual = 0.330127, Final residual = 0.0297484, No Iterations 5
ExecutionTime = 0.1 s  ClockTime = 0 s

scalarTransport execute: age
smoothSolver:  Solving for age, Initial residual = 0.230571, Final residual = 0.0203918, No Iterations 9

Time = 6

smoothSolver:  Solving for Ux, Initial residual = 0.0418784, Final residual = 0.00276269, No Iterations 6
smoothSolver:  Solving for Uy, Initial residual = 0.0246915, Final residual = 0.00198197, No Iterations 5
GAMG:  Solving for p, Initial residual = 0.062745, Final residual = 0.00285581, No Iterations 2
time step continuity errors : sum local = 0.00762022, global = -0.00110493, cumulative = 0.00605449
smoothSolver:  Solving for omega, Initial residual = 0.0779248, Final residual = 0.00616688, No Iterations 5
smoothSolver:  Solving for k, Initial residual = 0.265076, Final residual = 0.0253677, No Iterations 5
ExecutionTime = 0.11 s  ClockTime = 0 s

scalarTransport execute: age
smoothSolver:  Solving for age, Initial residual = 0.179509, Final residual = 0.0154367, No Iterations 10

Time = 7

smoothSolver:  Solving for Ux, Initial residual = 0.0349463, Final residual = 0.00230662, No Iterations 6
smoothSolver:  Solving for Uy, Initial residual = 0.0208656, Final residual = 0.00177909, No Iterations 5
GAMG:  Solving for p, Initial residual = 0.0507113, Final residual = 0.00338576, No Iterations 2
time step continuity errors : sum local = 0.00920755, global = -0.00127654, cumulative = 0.00477795
smoothSolver:  Solving for omega, Initial residual = 0.0596316, Final residual = 0.00505848, No Iterations 5
smoothSolver:  Solving for k, Initial residual = 0.220072, Final residual = 0.0219631, No Iterations 5
ExecutionTime = 0.13 s  ClockTime = 0 s

scalarTransport execute: age
smoothSolver:  Solving for age, Initial residual = 0.145074, Final residual = 0.0137935, No Iterations 10

Time = 8

smoothSolver:  Solving for Ux, Initial residual = 0.0295261, Final residual = 0.00280567, No Iterations 5
smoothSolver:  Solving for Uy, Initial residual = 0.0185377, Final residual = 0.00163864, No Iterations 5
GAMG:  Solving for p, Initial residual = 0.0404443, Final residual = 0.00314893, No Iterations 2
time step continuity errors : sum local = 0.00895652, global = -0.000932066, cumulative = 0.00384589
smoothSolver:  Solving for omega, Initial residual = 0.0478304, Final residual = 0.00421242, No Iterations 5
smoothSolver:  Solving for k, Initial residual = 0.187581, Final residual = 0.0122932, No Iterations 6
ExecutionTime = 0.14 s  ClockTime = 0 s

scalarTransport execute: age
smoothSolver:  Solving for age, Initial residual = 0.122741, Final residual = 0.010694, No Iterations 11

Time = 9

smoothSolver:  Solving for Ux, Initial residual = 0.0276128, Final residual = 0.00265473, No Iterations 5
smoothSolver:  Solving for Uy, Initial residual = 0.0171997, Final residual = 0.00148992, No Iterations 5
GAMG:  Solving for p, Initial residual = 0.0314095, Final residual = 0.00103132, No Iterations 2
time step continuity errors : sum local = 0.00312166, global = -0.000767723, cumulative = 0.00307816
smoothSolver:  Solving for omega, Initial residual = 0.0398662, Final residual = 0.00361224, No Iterations 5
smoothSolver:  Solving for k, Initial residual = 0.163234, Final residual = 0.011026, No Iterations 6
ExecutionTime = 0.15 s  ClockTime = 0 s

scalarTransport execute: age
smoothSolver:  Solving for age, Initial residual = 0.106541, Final residual = 0.00944983, No Iterations 11

Time = 10

smoothSolver:  Solving for Ux, Initial residual = 0.0245943, Final residual = 0.00244251, No Iterations 5
smoothSolver:  Solving for Uy, Initial residual = 0.0157877, Final residual = 0.00144692, No Iterations 5
GAMG:  Solving for p, Initial residual = 0.0265032, Final residual = 0.000871756, No Iterations 2
time step continuity errors : sum local = 0.00267665, global = -0.000603458, cumulative = 0.00247471
smoothSolver:  Solving for omega, Initial residual = 0.0335048, Final residual = 0.00311857, No Iterations 5
smoothSolver:  Solving for k, Initial residual = 0.144174, Final residual = 0.00998368, No Iterations 6
ExecutionTime = 0.17 s  ClockTime = 0 s

scalarTransport execute: age
smoothSolver:  Solving for age, Initial residual = 0.0927689, Final residual = 0.0084519, No Iterations 11

Time = 11

smoothSolver:  Solving for Ux, Initial residual = 0.0231363, Final residual = 0.00153519, No Iterations 6
smoothSolver:  Solving for Uy, Initial residual = 0.0149947, Final residual = 0.0014072, No Iterations 5
GAMG:  Solving for p, Initial residual = 0.0237825, Final residual = 0.000873263, No Iterations 2
time step continuity errors : sum local = 0.00271535, global = -0.000432723, cumulative = 0.00204198
smoothSolver:  Solving for omega, Initial residual = 0.0284432, Final residual = 0.00270943, No Iterations 5
smoothSolver:  Solving for k, Initial residual = 0.128965, Final residual = 0.00911319, No Iterations 6
ExecutionTime = 0.18 s  ClockTime = 0 s

scalarTransport execute: age
smoothSolver:  Solving for age, Initial residual = 0.0814334, Final residual = 0.0076387, No Iterations 11

Time = 12

smoothSolver:  Solving for Ux, Initial residual = 0.0218484, Final residual = 0.00146467, No Iterations 6
smoothSolver:  Solving for Uy, Initial residual = 0.0143887, Final residual = 0.00137891, No Iterations 5
GAMG:  Solving for p, Initial residual = 0.0218869, Final residual = 0.00087234, No Iterations 2
time step continuity errors : sum local = 0.00273741, global = -0.000261856, cumulative = 0.00178013
smoothSolver:  Solving for omega, Initial residual = 0.0244686, Final residual = 0.00237231, No Iterations 5
smoothSolver:  Solving for k, Initial residual = 0.116588, Final residual = 0.00837837, No Iterations 6
ExecutionTime = 0.19 s  ClockTime = 0 s

scalarTransport execute: age
smoothSolver:  Solving for age, Initial residual = 0.071964, Final residual = 0.00700932, No Iterations 11

Time = 13

smoothSolver:  Solving for Ux, Initial residual = 0.020637, Final residual = 0.00139291, No Iterations 6
smoothSolver:  Solving for Uy, Initial residual = 0.0138642, Final residual = 0.00135447, No Iterations 5
GAMG:  Solving for p, Initial residual = 0.0206685, Final residual = 0.000859482, No Iterations 2
time step continuity errors : sum local = 0.00270287, global = -9.67885e-05, cumulative = 0.00168334
smoothSolver:  Solving for omega, Initial residual = 0.0212555, Final residual = 0.00209098, No Iterations 5
smoothSolver:  Solving for k, Initial residual = 0.10632, Final residual = 0.00774873, No Iterations 6
ExecutionTime = 0.2 s  ClockTime = 0 s

scalarTransport execute: age
smoothSolver:  Solving for age, Initial residual = 0.0629041, Final residual = 0.00541404, No Iterations 12

Time = 14

smoothSolver:  Solving for Ux, Initial residual = 0.0195141, Final residual = 0.00132026, No Iterations 6
smoothSolver:  Solving for Uy, Initial residual = 0.0134823, Final residual = 0.0013331, No Iterations 5
GAMG:  Solving for p, Initial residual = 0.0196155, Final residual = 0.000836713, No Iterations 2
time step continuity errors : sum local = 0.00263381, global = 6.08447e-05, cumulative = 0.00174418
smoothSolver:  Solving for omega, Initial residual = 0.0186408, Final residual = 0.00185473, No Iterations 5
smoothSolver:  Solving for k, Initial residual = 0.0976774, Final residual = 0.00720382, No Iterations 6
ExecutionTime = 0.22 s  ClockTime = 0 s

scalarTransport execute: age
smoothSolver:  Solving for age, Initial residual = 0.0544323, Final residual = 0.00484195, No Iterations 12

Time = 15

smoothSolver:  Solving for Ux, Initial residual = 0.0184708, Final residual = 0.00124696, No Iterations 6
smoothSolver:  Solving for Uy, Initial residual = 0.0131675, Final residual = 0.00131431, No Iterations 5
GAMG:  Solving for p, Initial residual = 0.0187305, Final residual = 0.000810431, No Iterations 2
time step continuity errors : sum local = 0.00254753, global = 0.000196947, cumulative = 0.00194113
smoothSolver:  Solving for omega, Initial residual = 0.0164769, Final residual = 0.00105857, No Iterations 6
smoothSolver:  Solving for k, Initial residual = 0.0901022, Final residual = 0.00671463, No Iterations 6
ExecutionTime = 0.23 s  ClockTime = 0 s

scalarTransport execute: age
smoothSolver:  Solving for age, Initial residual = 0.0472237, Final residual = 0.00430973, No Iterations 12

Time = 16

smoothSolver:  Solving for Ux, Initial residual = 0.0174392, Final residual = 0.00117287, No Iterations 6
smoothSolver:  Solving for Uy, Initial residual = 0.0129398, Final residual = 0.000846722, No Iterations 6
GAMG:  Solving for p, Initial residual = 0.0180349, Final residual = 0.000791916, No Iterations 2
time step continuity errors : sum local = 0.00247582, global = 0.000310416, cumulative = 0.00225155
smoothSolver:  Solving for omega, Initial residual = 0.014554, Final residual = 0.000944247, No Iterations 6
smoothSolver:  Solving for k, Initial residual = 0.083473, Final residual = 0.00627879, No Iterations 6
ExecutionTime = 0.24 s  ClockTime = 0 s

scalarTransport execute: age
smoothSolver:  Solving for age, Initial residual = 0.0413017, Final residual = 0.00382216, No Iterations 12

Time = 17

smoothSolver:  Solving for Ux, Initial residual = 0.0165459, Final residual = 0.00110947, No Iterations 6
smoothSolver:  Solving for Uy, Initial residual = 0.0126835, Final residual = 0.000830523, No Iterations 6
GAMG:  Solving for p, Initial residual = 0.0174181, Final residual = 0.000809202, No Iterations 2
time step continuity errors : sum local = 0.00250856, global = 0.00038619, cumulative = 0.00263774
smoothSolver:  Solving for omega, Initial residual = 0.0129568, Final residual = 0.00084709, No Iterations 6
smoothSolver:  Solving for k, Initial residual = 0.0777494, Final residual = 0.00589425, No Iterations 6
ExecutionTime = 0.25 s  ClockTime = 0 s

scalarTransport execute: age
smoothSolver:  Solving for age, Initial residual = 0.0363255, Final residual = 0.00339203, No Iterations 12

Time = 18

smoothSolver:  Solving for Ux, Initial residual = 0.0156706, Final residual = 0.00104868, No Iterations 6
smoothSolver:  Solving for Uy, Initial residual = 0.0124797, Final residual = 0.000816237, No Iterations 6
GAMG:  Solving for p, Initial residual = 0.0168825, Final residual = 0.000820595, No Iterations 2
time step continuity errors : sum local = 0.00251638, global = 0.00041853, cumulative = 0.00305627
smoothSolver:  Solving for omega, Initial residual = 0.0116213, Final residual = 0.000764068, No Iterations 6
smoothSolver:  Solving for k, Initial residual = 0.0727561, Final residual = 0.00555266, No Iterations 6
ExecutionTime = 0.27 s  ClockTime = 0 s

scalarTransport execute: age
smoothSolver:  Solving for age, Initial residual = 0.0322289, Final residual = 0.00301018, No Iterations 12

Time = 19

smoothSolver:  Solving for Ux, Initial residual = 0.0148545, Final residual = 0.000992542, No Iterations 6
smoothSolver:  Solving for Uy, Initial residual = 0.0122859, Final residual = 0.000802809, No Iterations 6
GAMG:  Solving for p, Initial residual = 0.0163999, Final residual = 0.000812686, No Iterations 2
time step continuity errors : sum local = 0.00246063, global = 0.000429359, cumulative = 0.00348563
smoothSolver:  Solving for omega, Initial residual = 0.0104882, Final residual = 0.000692385, No Iterations 6
smoothSolver:  Solving for k, Initial residual = 0.0683459, Final residual = 0.0052461, No Iterations 6
ExecutionTime = 0.28 s  ClockTime = 0 s

scalarTransport execute: age
smoothSolver:  Solving for age, Initial residual = 0.0287145, Final residual = 0.00267494, No Iterations 12

Time = 20

smoothSolver:  Solving for Ux, Initial residual = 0.0140961, Final residual = 0.000941637, No Iterations 6
smoothSolver:  Solving for Uy, Initial residual = 0.0120648, Final residual = 0.000788739, No Iterations 6
GAMG:  Solving for p, Initial residual = 0.0159148, Final residual = 0.000783661, No Iterations 2
time step continuity errors : sum local = 0.00234431, global = 0.000423706, cumulative = 0.00390933
smoothSolver:  Solving for omega, Initial residual = 0.00951273, Final residual = 0.000630086, No Iterations 6
smoothSolver:  Solving for k, Initial residual = 0.0644162, Final residual = 0.00496914, No Iterations 6
ExecutionTime = 0.29 s  ClockTime = 0 s

scalarTransport execute: age
smoothSolver:  Solving for age, Initial residual = 0.0256388, Final residual = 0.00237587, No Iterations 12

Time = 21

smoothSolver:  Solving for Ux, Initial residual = 0.0134093, Final residual = 0.000895087, No Iterations 6
smoothSolver:  Solving for Uy, Initial residual = 0.0118356, Final residual = 0.000774654, No Iterations 6
GAMG:  Solving for p, Initial residual = 0.0153542, Final residual = 0.000747243, No Iterations 2
time step continuity errors : sum local = 0.00220979, global = 0.0004074, cumulative = 0.00431673
smoothSolver:  Solving for omega, Initial residual = 0.0086705, Final residual = 0.000575682, No Iterations 6
smoothSolver:  Solving for k, Initial residual = 0.0608928, Final residual = 0.00471751, No Iterations 6
ExecutionTime = 0.31 s  ClockTime = 0 s

scalarTransport execute: age
smoothSolver:  Solving for age, Initial residual = 0.0229228, Final residual = 0.00210423, No Iterations 12

Time = 22

smoothSolver:  Solving for Ux, Initial residual = 0.012791, Final residual = 0.000852694, No Iterations 6
smoothSolver:  Solving for Uy, Initial residual = 0.0115956, Final residual = 0.000760276, No Iterations 6
GAMG:  Solving for p, Initial residual = 0.014732, Final residual = 0.000712293, No Iterations 2
time step continuity errors : sum local = 0.0020846, global = 0.000387813, cumulative = 0.00470455
smoothSolver:  Solving for omega, Initial residual = 0.00793764, Final residual = 0.000527816, No Iterations 6
smoothSolver:  Solving for k, Initial residual = 0.0577118, Final residual = 0.00448781, No Iterations 6
ExecutionTime = 0.32 s  ClockTime = 0 s

scalarTransport execute: age
smoothSolver:  Solving for age, Initial residual = 0.0205439, Final residual = 0.00185498, No Iterations 12

Time = 23

smoothSolver:  Solving for Ux, Initial residual = 0.0122267, Final residual = 0.000813577, No Iterations 6
smoothSolver:  Solving for Uy, Initial residual = 0.0113503, Final residual = 0.000745861, No Iterations 6
GAMG:  Solving for p, Initial residual = 0.0140056, Final residual = 0.000683849, No Iterations 2
time step continuity errors : sum local = 0.00198077, global = 0.000368803, cumulative = 0.00507335
smoothSolver:  Solving for omega, Initial residual = 0.00727849, Final residual = 0.00048516, No Iterations 6
smoothSolver:  Solving for k, Initial residual = 0.0548183, Final residual = 0.00427668, No Iterations 6
ExecutionTime = 0.33 s  ClockTime = 0 s

scalarTransport execute: age
smoothSolver:  Solving for age, Initial residual = 0.0186097, Final residual = 0.00161645, No Iterations 12

Time = 24

smoothSolver:  Solving for Ux, Initial residual = 0.0117014, Final residual = 0.000777823, No Iterations 6
smoothSolver:  Solving for Uy, Initial residual = 0.011091, Final residual = 0.000730755, No Iterations 6
GAMG:  Solving for p, Initial residual = 0.0132692, Final residual = 0.000660341, No Iterations 2
time step continuity errors : sum local = 0.00189335, global = 0.000351541, cumulative = 0.00542489
smoothSolver:  Solving for omega, Initial residual = 0.00669216, Final residual = 0.000447016, No Iterations 6
smoothSolver:  Solving for k, Initial residual = 0.052178, Final residual = 0.00408216, No Iterations 6
ExecutionTime = 0.35 s  ClockTime = 0 s

scalarTransport execute: age
smoothSolver:  Solving for age, Initial residual = 0.0169089, Final residual = 0.00166561, No Iterations 11

Time = 25

smoothSolver:  Solving for Ux, Initial residual = 0.0112197, Final residual = 0.000746498, No Iterations 6
smoothSolver:  Solving for Uy, Initial residual = 0.0108305, Final residual = 0.000714832, No Iterations 6
GAMG:  Solving for p, Initial residual = 0.0125435, Final residual = 0.00063452, No Iterations 2
time step continuity errors : sum local = 0.00180151, global = 0.00033591, cumulative = 0.0057608
smoothSolver:  Solving for omega, Initial residual = 0.00618957, Final residual = 0.000413371, No Iterations 6
smoothSolver:  Solving for k, Initial residual = 0.0497472, Final residual = 0.00390134, No Iterations 6
ExecutionTime = 0.36 s  ClockTime = 0 s

scalarTransport execute: age
smoothSolver:  Solving for age, Initial residual = 0.0154115, Final residual = 0.00144487, No Iterations 11

Time = 26

smoothSolver:  Solving for Ux, Initial residual = 0.0107888, Final residual = 0.000718818, No Iterations 6
smoothSolver:  Solving for Uy, Initial residual = 0.0105696, Final residual = 0.00069735, No Iterations 6
GAMG:  Solving for p, Initial residual = 0.0119453, Final residual = 0.000607748, No Iterations 2
time step continuity errors : sum local = 0.00170926, global = 0.000322101, cumulative = 0.0060829
smoothSolver:  Solving for omega, Initial residual = 0.0057426, Final residual = 0.000383333, No Iterations 6
smoothSolver:  Solving for k, Initial residual = 0.0475007, Final residual = 0.00373279, No Iterations 6
ExecutionTime = 0.37 s  ClockTime = 0 s

scalarTransport execute: age
smoothSolver:  Solving for age, Initial residual = 0.0141367, Final residual = 0.00125605, No Iterations 11

Time = 27

smoothSolver:  Solving for Ux, Initial residual = 0.0104026, Final residual = 0.000694876, No Iterations 6
smoothSolver:  Solving for Uy, Initial residual = 0.0103043, Final residual = 0.000678388, No Iterations 6
GAMG:  Solving for p, Initial residual = 0.0117159, Final residual = 0.000582209, No Iterations 2
time step continuity errors : sum local = 0.00162336, global = 0.000310533, cumulative = 0.00639343
smoothSolver:  Solving for omega, Initial residual = 0.00534379, Final residual = 0.000356371, No Iterations 6
smoothSolver:  Solving for k, Initial residual = 0.0454039, Final residual = 0.0035743, No Iterations 6
ExecutionTime = 0.38 s  ClockTime = 0 s

scalarTransport execute: age
smoothSolver:  Solving for age, Initial residual = 0.0130581, Final residual = 0.00110946, No Iterations 11

Time = 28

smoothSolver:  Solving for Ux, Initial residual = 0.010059, Final residual = 0.000674365, No Iterations 6
smoothSolver:  Solving for Uy, Initial residual = 0.0100246, Final residual = 0.000656694, No Iterations 6
GAMG:  Solving for p, Initial residual = 0.011656, Final residual = 0.000559575, No Iterations 2
time step continuity errors : sum local = 0.00154875, global = 0.000301497, cumulative = 0.00669493
smoothSolver:  Solving for omega, Initial residual = 0.00499027, Final residual = 0.000332152, No Iterations 6
smoothSolver:  Solving for k, Initial residual = 0.0434451, Final residual = 0.00342528, No Iterations 6
ExecutionTime = 0.4 s  ClockTime = 0 s

scalarTransport execute: age
smoothSolver:  Solving for age, Initial residual = 0.0121979, Final residual = 0.00117981, No Iterations 10

Time = 29

smoothSolver:  Solving for Ux, Initial residual = 0.00978147, Final residual = 0.000657006, No Iterations 6
smoothSolver:  Solving for Uy, Initial residual = 0.00973246, Final residual = 0.000633754, No Iterations 6
GAMG:  Solving for p, Initial residual = 0.011764, Final residual = 0.000538072, No Iterations 2
time step continuity errors : sum local = 0.00148049, global = 0.000287438, cumulative = 0.00698237
smoothSolver:  Solving for omega, Initial residual = 0.00467642, Final residual = 0.000310294, No Iterations 6
smoothSolver:  Solving for k, Initial residual = 0.0416086, Final residual = 0.00328481, No Iterations 6
ExecutionTime = 0.41 s  ClockTime = 0 s

scalarTransport execute: age
smoothSolver:  Solving for age, Initial residual = 0.0115105, Final residual = 0.00109059, No Iterations 10

Time = 30

smoothSolver:  Solving for Ux, Initial residual = 0.00958194, Final residual = 0.000643139, No Iterations 6
smoothSolver:  Solving for Uy, Initial residual = 0.00942264, Final residual = 0.000938445, No Iterations 5
GAMG:  Solving for p, Initial residual = 0.0117241, Final residual = 0.000538967, No Iterations 2
time step continuity errors : sum local = 0.00147044, global = 0.000272305, cumulative = 0.00725467
smoothSolver:  Solving for omega, Initial residual = 0.00439194, Final residual = 0.000290443, No Iterations 6
smoothSolver:  Solving for k, Initial residual = 0.0398755, Final residual = 0.00315172, No Iterations 6
ExecutionTime = 0.42 s  ClockTime = 0 s

scalarTransport execute: age
smoothSolver:  Solving for age, Initial residual = 0.0108948, Final residual = 0.00102688, No Iterations 10

Time = 31

smoothSolver:  Solving for Ux, Initial residual = 0.00938955, Final residual = 0.000629016, No Iterations 6
smoothSolver:  Solving for Uy, Initial residual = 0.00914487, Final residual = 0.000907135, No Iterations 5
GAMG:  Solving for p, Initial residual = 0.0115267, Final residual = 0.000540516, No Iterations 2
time step continuity errors : sum local = 0.00146455, global = 0.000259071, cumulative = 0.00751374
smoothSolver:  Solving for omega, Initial residual = 0.00413404, Final residual = 0.000272376, No Iterations 6
smoothSolver:  Solving for k, Initial residual = 0.0382356, Final residual = 0.00302543, No Iterations 6
ExecutionTime = 0.43 s  ClockTime = 0 s

scalarTransport execute: age
smoothSolver:  Solving for age, Initial residual = 0.0103446, Final residual = 0.000982497, No Iterations 10

Time = 32

smoothSolver:  Solving for Ux, Initial residual = 0.00926194, Final residual = 0.000618406, No Iterations 6
smoothSolver:  Solving for Uy, Initial residual = 0.00881808, Final residual = 0.000870938, No Iterations 5
GAMG:  Solving for p, Initial residual = 0.0112467, Final residual = 0.000538815, No Iterations 2
time step continuity errors : sum local = 0.00145192, global = 0.000248768, cumulative = 0.00776251
smoothSolver:  Solving for omega, Initial residual = 0.00389844, Final residual = 0.00025588, No Iterations 6
smoothSolver:  Solving for k, Initial residual = 0.0366804, Final residual = 0.00290541, No Iterations 6
ExecutionTime = 0.45 s  ClockTime = 0 s

scalarTransport execute: age
smoothSolver:  Solving for age, Initial residual = 0.00993001, Final residual = 0.000960044, No Iterations 10

Time = 33

smoothSolver:  Solving for Ux, Initial residual = 0.00917856, Final residual = 0.000611093, No Iterations 6
smoothSolver:  Solving for Uy, Initial residual = 0.00845053, Final residual = 0.000830647, No Iterations 5
GAMG:  Solving for p, Initial residual = 0.0108589, Final residual = 0.000526499, No Iterations 2
time step continuity errors : sum local = 0.00141212, global = 0.000239627, cumulative = 0.00800214
smoothSolver:  Solving for omega, Initial residual = 0.0036832, Final residual = 0.00024078, No Iterations 6
smoothSolver:  Solving for k, Initial residual = 0.0352026, Final residual = 0.00279121, No Iterations 6
ExecutionTime = 0.46 s  ClockTime = 0 s

scalarTransport execute: age
smoothSolver:  Solving for age, Initial residual = 0.00957758, Final residual = 0.000954495, No Iterations 10

Time = 34

smoothSolver:  Solving for Ux, Initial residual = 0.00912832, Final residual = 0.000606618, No Iterations 6
smoothSolver:  Solving for Uy, Initial residual = 0.00805568, Final residual = 0.000788414, No Iterations 5
GAMG:  Solving for p, Initial residual = 0.0104926, Final residual = 0.000507485, No Iterations 2
time step continuity errors : sum local = 0.00135528, global = 0.000231753, cumulative = 0.00823389
smoothSolver:  Solving for omega, Initial residual = 0.00350133, Final residual = 0.000226645, No Iterations 6
smoothSolver:  Solving for k, Initial residual = 0.0338017, Final residual = 0.00268263, No Iterations 6
ExecutionTime = 0.47 s  ClockTime = 0 s

scalarTransport execute: age
smoothSolver:  Solving for age, Initial residual = 0.00935336, Final residual = 0.000818508, No Iterations 11

Time = 35

smoothSolver:  Solving for Ux, Initial residual = 0.00908971, Final residual = 0.000604012, No Iterations 6
smoothSolver:  Solving for Uy, Initial residual = 0.00763658, Final residual = 0.000745764, No Iterations 5
GAMG:  Solving for p, Initial residual = 0.010044, Final residual = 0.000484865, No Iterations 2
time step continuity errors : sum local = 0.00128995, global = 0.000224903, cumulative = 0.00845879
smoothSolver:  Solving for omega, Initial residual = 0.00331705, Final residual = 0.000330725, No Iterations 5
smoothSolver:  Solving for k, Initial residual = 0.0324918, Final residual = 0.00258116, No Iterations 6
ExecutionTime = 0.48 s  ClockTime = 0 s

scalarTransport execute: age
smoothSolver:  Solving for age, Initial residual = 0.00920208, Final residual = 0.000818499, No Iterations 11

Time = 36

smoothSolver:  Solving for Ux, Initial residual = 0.00907224, Final residual = 0.000603645, No Iterations 6
smoothSolver:  Solving for Uy, Initial residual = 0.00723566, Final residual = 0.000704338, No Iterations 5
GAMG:  Solving for p, Initial residual = 0.00968086, Final residual = 0.000471753, No Iterations 2
time step continuity errors : sum local = 0.00125046, global = 0.000218698, cumulative = 0.00867749
smoothSolver:  Solving for omega, Initial residual = 0.00316696, Final residual = 0.000314025, No Iterations 5
smoothSolver:  Solving for k, Initial residual = 0.0312611, Final residual = 0.0024855, No Iterations 6
ExecutionTime = 0.5 s  ClockTime = 0 s

scalarTransport execute: age
smoothSolver:  Solving for age, Initial residual = 0.00903065, Final residual = 0.000815968, No Iterations 11

Time = 37

smoothSolver:  Solving for Ux, Initial residual = 0.00905315, Final residual = 0.000603482, No Iterations 6
smoothSolver:  Solving for Uy, Initial residual = 0.00685905, Final residual = 0.000665047, No Iterations 5
GAMG:  Solving for p, Initial residual = 0.00946734, Final residual = 0.000470115, No Iterations 2
time step continuity errors : sum local = 0.00124061, global = 0.000214063, cumulative = 0.00889155
smoothSolver:  Solving for omega, Initial residual = 0.00302506, Final residual = 0.000298225, No Iterations 5
smoothSolver:  Solving for k, Initial residual = 0.030085, Final residual = 0.002394, No Iterations 6
ExecutionTime = 0.51 s  ClockTime = 0 s

scalarTransport execute: age
smoothSolver:  Solving for age, Initial residual = 0.00886443, Final residual = 0.000811095, No Iterations 11

Time = 38

smoothSolver:  Solving for Ux, Initial residual = 0.0090433, Final residual = 0.000603292, No Iterations 6
smoothSolver:  Solving for Uy, Initial residual = 0.00650732, Final residual = 0.00062778, No Iterations 5
GAMG:  Solving for p, Initial residual = 0.00934901, Final residual = 0.000482851, No Iterations 2
time step continuity errors : sum local = 0.00126812, global = 0.000211968, cumulative = 0.00910352
smoothSolver:  Solving for omega, Initial residual = 0.00288852, Final residual = 0.000283299, No Iterations 5
smoothSolver:  Solving for k, Initial residual = 0.0289615, Final residual = 0.00230645, No Iterations 6
ExecutionTime = 0.52 s  ClockTime = 0 s

scalarTransport execute: age
smoothSolver:  Solving for age, Initial residual = 0.0086981, Final residual = 0.000805357, No Iterations 11

Time = 39

smoothSolver:  Solving for Ux, Initial residual = 0.00905984, Final residual = 0.000603047, No Iterations 6
smoothSolver:  Solving for Uy, Initial residual = 0.00618009, Final residual = 0.000593252, No Iterations 5
GAMG:  Solving for p, Initial residual = 0.00927091, Final residual = 0.000515258, No Iterations 2
time step continuity errors : sum local = 0.0013476, global = 0.0002176, cumulative = 0.00932112
smoothSolver:  Solving for omega, Initial residual = 0.00275803, Final residual = 0.000269108, No Iterations 5
smoothSolver:  Solving for k, Initial residual = 0.0278923, Final residual = 0.00222283, No Iterations 6
ExecutionTime = 0.53 s  ClockTime = 0 s

scalarTransport execute: age
smoothSolver:  Solving for age, Initial residual = 0.00850338, Final residual = 0.000801063, No Iterations 11

Time = 40

smoothSolver:  Solving for Ux, Initial residual = 0.00909685, Final residual = 0.000602864, No Iterations 6
smoothSolver:  Solving for Uy, Initial residual = 0.00587145, Final residual = 0.000561492, No Iterations 5
GAMG:  Solving for p, Initial residual = 0.00924342, Final residual = 0.000546606, No Iterations 2
time step continuity errors : sum local = 0.00142437, global = 0.000226312, cumulative = 0.00954743
smoothSolver:  Solving for omega, Initial residual = 0.00263947, Final residual = 0.000255711, No Iterations 5
smoothSolver:  Solving for k, Initial residual = 0.0268767, Final residual = 0.00214295, No Iterations 6
ExecutionTime = 0.55 s  ClockTime = 0 s

scalarTransport execute: age
smoothSolver:  Solving for age, Initial residual = 0.00831585, Final residual = 0.000796744, No Iterations 11

Time = 41

smoothSolver:  Solving for Ux, Initial residual = 0.00915557, Final residual = 0.000603428, No Iterations 6
smoothSolver:  Solving for Uy, Initial residual = 0.00559812, Final residual = 0.000533209, No Iterations 5
GAMG:  Solving for p, Initial residual = 0.00928959, Final residual = 0.000584745, No Iterations 2
time step continuity errors : sum local = 0.0015184, global = 0.000237159, cumulative = 0.00978459
smoothSolver:  Solving for omega, Initial residual = 0.00252994, Final residual = 0.000242801, No Iterations 5
smoothSolver:  Solving for k, Initial residual = 0.0259158, Final residual = 0.00206672, No Iterations 6
ExecutionTime = 0.56 s  ClockTime = 0 s

scalarTransport execute: age
smoothSolver:  Solving for age, Initial residual = 0.00817361, Final residual = 0.000789643, No Iterations 11

Time = 42

smoothSolver:  Solving for Ux, Initial residual = 0.009225, Final residual = 0.00060429, No Iterations 6
smoothSolver:  Solving for Uy, Initial residual = 0.00536309, Final residual = 0.000508359, No Iterations 5
GAMG:  Solving for p, Initial residual = 0.00944788, Final residual = 0.000622804, No Iterations 2
time step continuity errors : sum local = 0.00161208, global = 0.000248566, cumulative = 0.0100332
smoothSolver:  Solving for omega, Initial residual = 0.00241812, Final residual = 0.00023084, No Iterations 5
smoothSolver:  Solving for k, Initial residual = 0.024999, Final residual = 0.00199383, No Iterations 6
ExecutionTime = 0.57 s  ClockTime = 0 s

scalarTransport execute: age
smoothSolver:  Solving for age, Initial residual = 0.00804483, Final residual = 0.000784665, No Iterations 11

Time = 43

smoothSolver:  Solving for Ux, Initial residual = 0.00929447, Final residual = 0.000605479, No Iterations 6
smoothSolver:  Solving for Uy, Initial residual = 0.00516397, Final residual = 0.000487195, No Iterations 5
GAMG:  Solving for p, Initial residual = 0.00959019, Final residual = 0.000655471, No Iterations 2
time step continuity errors : sum local = 0.00169269, global = 0.000258957, cumulative = 0.0102921
smoothSolver:  Solving for omega, Initial residual = 0.00230935, Final residual = 0.00021906, No Iterations 5
smoothSolver:  Solving for k, Initial residual = 0.0241255, Final residual = 0.00192417, No Iterations 6
ExecutionTime = 0.58 s  ClockTime = 0 s

scalarTransport execute: age
smoothSolver:  Solving for age, Initial residual = 0.00793889, Final residual = 0.000787969, No Iterations 11

Time = 44

smoothSolver:  Solving for Ux, Initial residual = 0.00935874, Final residual = 0.000607264, No Iterations 6
smoothSolver:  Solving for Uy, Initial residual = 0.00500159, Final residual = 0.000470093, No Iterations 5
GAMG:  Solving for p, Initial residual = 0.00969393, Final residual = 0.000681245, No Iterations 2
time step continuity errors : sum local = 0.00175732, global = 0.000266933, cumulative = 0.010559
smoothSolver:  Solving for omega, Initial residual = 0.00221862, Final residual = 0.000208163, No Iterations 5
smoothSolver:  Solving for k, Initial residual = 0.0232943, Final residual = 0.00185754, No Iterations 6
ExecutionTime = 0.6 s  ClockTime = 0 s

scalarTransport execute: age
smoothSolver:  Solving for age, Initial residual = 0.00787378, Final residual = 0.000688129, No Iterations 12

Time = 45

smoothSolver:  Solving for Ux, Initial residual = 0.00943472, Final residual = 0.000940731, No Iterations 5
smoothSolver:  Solving for Uy, Initial residual = 0.00487732, Final residual = 0.000457064, No Iterations 5
GAMG:  Solving for p, Initial residual = 0.00969578, Final residual = 0.000696358, No Iterations 2
time step continuity errors : sum local = 0.0017952, global = 0.000272839, cumulative = 0.0108319
smoothSolver:  Solving for omega, Initial residual = 0.00213097, Final residual = 0.000198203, No Iterations 5
smoothSolver:  Solving for k, Initial residual = 0.0225058, Final residual = 0.001794, No Iterations 6
ExecutionTime = 0.61 s  ClockTime = 0 s

scalarTransport execute: age
smoothSolver:  Solving for age, Initial residual = 0.00779345, Final residual = 0.000702439, No Iterations 12

Time = 46

smoothSolver:  Solving for Ux, Initial residual = 0.0095558, Final residual = 0.000950833, No Iterations 5
smoothSolver:  Solving for Uy, Initial residual = 0.00474678, Final residual = 0.000443736, No Iterations 5
GAMG:  Solving for p, Initial residual = 0.00979171, Final residual = 0.000715283, No Iterations 2
time step continuity errors : sum local = 0.00184393, global = 0.000274883, cumulative = 0.0111068
smoothSolver:  Solving for omega, Initial residual = 0.00205344, Final residual = 0.000188915, No Iterations 5
smoothSolver:  Solving for k, Initial residual = 0.0217547, Final residual = 0.00173327, No Iterations 6
ExecutionTime = 0.62 s  ClockTime = 1 s

scalarTransport execute: age
smoothSolver:  Solving for age, Initial residual = 0.00770479, Final residual = 0.000710265, No Iterations 12

Time = 47

smoothSolver:  Solving for Ux, Initial residual = 0.009684, Final residual = 0.000961868, No Iterations 5
smoothSolver:  Solving for Uy, Initial residual = 0.00467908, Final residual = 0.000436459, No Iterations 5
GAMG:  Solving for p, Initial residual = 0.00987148, Final residual = 0.000738876, No Iterations 2
time step continuity errors : sum local = 0.00190582, global = 0.000274637, cumulative = 0.0113814
smoothSolver:  Solving for omega, Initial residual = 0.00198016, Final residual = 0.000180256, No Iterations 5
smoothSolver:  Solving for k, Initial residual = 0.0210386, Final residual = 0.00167522, No Iterations 6
ExecutionTime = 0.63 s  ClockTime = 1 s

scalarTransport execute: age
smoothSolver:  Solving for age, Initial residual = 0.00767472, Final residual = 0.000713571, No Iterations 12

Time = 48

smoothSolver:  Solving for Ux, Initial residual = 0.00980644, Final residual = 0.000973762, No Iterations 5
smoothSolver:  Solving for Uy, Initial residual = 0.00466142, Final residual = 0.000434869, No Iterations 5
GAMG:  Solving for p, Initial residual = 0.00993441, Final residual = 0.000763126, No Iterations 2
time step continuity errors : sum local = 0.00197048, global = 0.000273347, cumulative = 0.0116548
smoothSolver:  Solving for omega, Initial residual = 0.00191169, Final residual = 0.000172131, No Iterations 5
smoothSolver:  Solving for k, Initial residual = 0.0203529, Final residual = 0.00161969, No Iterations 6
ExecutionTime = 0.65 s  ClockTime = 1 s

scalarTransport execute: age
smoothSolver:  Solving for age, Initial residual = 0.00771069, Final residual = 0.000726685, No Iterations 12

Time = 49

smoothSolver:  Solving for Ux, Initial residual = 0.00991983, Final residual = 0.000986179, No Iterations 5
smoothSolver:  Solving for Uy, Initial residual = 0.00468405, Final residual = 0.000439325, No Iterations 5
GAMG:  Solving for p, Initial residual = 0.00997828, Final residual = 0.000785284, No Iterations 2
time step continuity errors : sum local = 0.00203027, global = 0.000271699, cumulative = 0.0119265
smoothSolver:  Solving for omega, Initial residual = 0.00185477, Final residual = 0.000164552, No Iterations 5
smoothSolver:  Solving for k, Initial residual = 0.019694, Final residual = 0.00156642, No Iterations 6
ExecutionTime = 0.66 s  ClockTime = 1 s

scalarTransport execute: age
smoothSolver:  Solving for age, Initial residual = 0.0078012, Final residual = 0.000739969, No Iterations 12

Time = 50

smoothSolver:  Solving for Ux, Initial residual = 0.0100265, Final residual = 0.000999428, No Iterations 5
smoothSolver:  Solving for Uy, Initial residual = 0.00473613, Final residual = 0.000448703, No Iterations 5
GAMG:  Solving for p, Initial residual = 0.0100729, Final residual = 0.000803285, No Iterations 2
time step continuity errors : sum local = 0.00207939, global = 0.000270187, cumulative = 0.0121966
smoothSolver:  Solving for omega, Initial residual = 0.00180274, Final residual = 0.000157431, No Iterations 5
smoothSolver:  Solving for k, Initial residual = 0.0190631, Final residual = 0.00151534, No Iterations 6
ExecutionTime = 0.67 s  ClockTime = 1 s

scalarTransport execute: age
smoothSolver:  Solving for age, Initial residual = 0.00795514, Final residual = 0.000761088, No Iterations 12

Time = 51

smoothSolver:  Solving for Ux, Initial residual = 0.0101347, Final residual = 0.000657867, No Iterations 6
smoothSolver:  Solving for Uy, Initial residual = 0.00481801, Final residual = 0.000462232, No Iterations 5
GAMG:  Solving for p, Initial residual = 0.0103309, Final residual = 0.00082889, No Iterations 2
time step continuity errors : sum local = 0.00214859, global = 0.000270303, cumulative = 0.0124669
smoothSolver:  Solving for omega, Initial residual = 0.00175553, Final residual = 0.000150825, No Iterations 5
smoothSolver:  Solving for k, Initial residual = 0.018453, Final residual = 0.00146605, No Iterations 6
ExecutionTime = 0.68 s  ClockTime = 1 s

scalarTransport execute: age
smoothSolver:  Solving for age, Initial residual = 0.00831909, Final residual = 0.000792683, No Iterations 12

Time = 52

smoothSolver:  Solving for Ux, Initial residual = 0.0102085, Final residual = 0.000665045, No Iterations 6
smoothSolver:  Solving for Uy, Initial residual = 0.00497484, Final residual = 0.000484255, No Iterations 5
GAMG:  Solving for p, Initial residual = 0.0106569, Final residual = 0.000837476, No Iterations 2
time step continuity errors : sum local = 0.00217647, global = 0.000270962, cumulative = 0.0127379
smoothSolver:  Solving for omega, Initial residual = 0.00170807, Final residual = 0.000144777, No Iterations 5
smoothSolver:  Solving for k, Initial residual = 0.0178706, Final residual = 0.00141888, No Iterations 6
ExecutionTime = 0.7 s  ClockTime = 1 s

scalarTransport execute: age
smoothSolver:  Solving for age, Initial residual = 0.00872659, Final residual = 0.000790351, No Iterations 13

Time = 53

smoothSolver:  Solving for Ux, Initial residual = 0.0102833, Final residual = 0.000673507, No Iterations 6
smoothSolver:  Solving for Uy, Initial residual = 0.00513196, Final residual = 0.000506948, No Iterations 5
GAMG:  Solving for p, Initial residual = 0.0112807, Final residual = 0.000834543, No Iterations 2
time step continuity errors : sum local = 0.00218309, global = 0.000271115, cumulative = 0.013009
smoothSolver:  Solving for omega, Initial residual = 0.0016661, Final residual = 0.000139243, No Iterations 5
smoothSolver:  Solving for k, Initial residual = 0.0173166, Final residual = 0.00137369, No Iterations 6
ExecutionTime = 0.71 s  ClockTime = 1 s

scalarTransport execute: age
smoothSolver:  Solving for age, Initial residual = 0.00959285, Final residual = 0.000888498, No Iterations 20

Time = 54

smoothSolver:  Solving for Ux, Initial residual = 0.0103855, Final residual = 0.000683619, No Iterations 6
smoothSolver:  Solving for Uy, Initial residual = 0.0052871, Final residual = 0.000345082, No Iterations 6
GAMG:  Solving for p, Initial residual = 0.0124709, Final residual = 0.000820771, No Iterations 2
time step continuity errors : sum local = 0.00217052, global = 0.000273619, cumulative = 0.0132826
smoothSolver:  Solving for omega, Initial residual = 0.00162675, Final residual = 0.000134109, No Iterations 5
smoothSolver:  Solving for k, Initial residual = 0.0167881, Final residual = 0.00133019, No Iterations 6
ExecutionTime = 0.72 s  ClockTime = 1 s

scalarTransport execute: age
smoothSolver:  Solving for age, Initial residual = 0.017383, Final residual = 0.00152635, No Iterations 13

Time = 55

smoothSolver:  Solving for Ux, Initial residual = 0.0105594, Final residual = 0.000695735, No Iterations 6
smoothSolver:  Solving for Uy, Initial residual = 0.00542027, Final residual = 0.000355043, No Iterations 6
GAMG:  Solving for p, Initial residual = 0.0133055, Final residual = 0.000845027, No Iterations 2
time step continuity errors : sum local = 0.00226902, global = 0.000280348, cumulative = 0.013563
smoothSolver:  Solving for omega, Initial residual = 0.00160812, Final residual = 0.000128894, No Iterations 5
smoothSolver:  Solving for k, Initial residual = 0.0162806, Final residual = 0.00128833, No Iterations 6
ExecutionTime = 0.74 s  ClockTime = 1 s

scalarTransport execute: age
smoothSolver:  Solving for age, Initial residual = 0.0158245, Final residual = 0.00154376, No Iterations 12

Time = 56

smoothSolver:  Solving for Ux, Initial residual = 0.01072, Final residual = 0.000706766, No Iterations 6
smoothSolver:  Solving for Uy, Initial residual = 0.00555515, Final residual = 0.000366222, No Iterations 6
GAMG:  Solving for p, Initial residual = 0.0137266, Final residual = 0.000907251, No Iterations 2
time step continuity errors : sum local = 0.00239332, global = 0.000291156, cumulative = 0.0138541
smoothSolver:  Solving for omega, Initial residual = 0.00153759, Final residual = 0.000123667, No Iterations 5
smoothSolver:  Solving for k, Initial residual = 0.0157925, Final residual = 0.00124822, No Iterations 6
ExecutionTime = 0.75 s  ClockTime = 1 s

scalarTransport execute: age
smoothSolver:  Solving for age, Initial residual = 0.0161585, Final residual = 0.00158499, No Iterations 11

Time = 57

smoothSolver:  Solving for Ux, Initial residual = 0.0108772, Final residual = 0.000716047, No Iterations 6
smoothSolver:  Solving for Uy, Initial residual = 0.0057781, Final residual = 0.000379698, No Iterations 6
GAMG:  Solving for p, Initial residual = 0.0134462, Final residual = 0.000927738, No Iterations 2
time step continuity errors : sum local = 0.00239847, global = 0.000300354, cumulative = 0.0141545
smoothSolver:  Solving for omega, Initial residual = 0.00151575, Final residual = 0.000117872, No Iterations 5
smoothSolver:  Solving for k, Initial residual = 0.0153125, Final residual = 0.00120988, No Iterations 6
ExecutionTime = 0.76 s  ClockTime = 1 s

scalarTransport execute: age
smoothSolver:  Solving for age, Initial residual = 0.0149007, Final residual = 0.00130955, No Iterations 12

Time = 58

smoothSolver:  Solving for Ux, Initial residual = 0.0109945, Final residual = 0.000725167, No Iterations 6
smoothSolver:  Solving for Uy, Initial residual = 0.00600679, Final residual = 0.000395468, No Iterations 6
GAMG:  Solving for p, Initial residual = 0.0130203, Final residual = 0.000954171, No Iterations 2
time step continuity errors : sum local = 0.00245199, global = 0.0003018, cumulative = 0.0144563
smoothSolver:  Solving for omega, Initial residual = 0.00144446, Final residual = 0.000113694, No Iterations 5
smoothSolver:  Solving for k, Initial residual = 0.01486, Final residual = 0.00117291, No Iterations 6
ExecutionTime = 0.77 s  ClockTime = 1 s

scalarTransport execute: age
smoothSolver:  Solving for age, Initial residual = 0.0149888, Final residual = 0.00149087, No Iterations 11

Time = 59

smoothSolver:  Solving for Ux, Initial residual = 0.0111257, Final residual = 0.000735527, No Iterations 6
smoothSolver:  Solving for Uy, Initial residual = 0.00618025, Final residual = 0.000410124, No Iterations 6
GAMG:  Solving for p, Initial residual = 0.01304, Final residual = 0.000987751, No Iterations 2
time step continuity errors : sum local = 0.00252228, global = 0.00030026, cumulative = 0.0147566
smoothSolver:  Solving for omega, Initial residual = 0.00141014, Final residual = 0.000109546, No Iterations 5
smoothSolver:  Solving for k, Initial residual = 0.0144303, Final residual = 0.00113737, No Iterations 6
ExecutionTime = 0.79 s  ClockTime = 1 s

scalarTransport execute: age
smoothSolver:  Solving for age, Initial residual = 0.0154483, Final residual = 0.00149956, No Iterations 11

Time = 60

smoothSolver:  Solving for Ux, Initial residual = 0.0112085, Final residual = 0.000744075, No Iterations 6
smoothSolver:  Solving for Uy, Initial residual = 0.00634301, Final residual = 0.000423364, No Iterations 6
GAMG:  Solving for p, Initial residual = 0.0129765, Final residual = 0.00101172, No Iterations 2
time step continuity errors : sum local = 0.00257284, global = 0.000296612, cumulative = 0.0150532
smoothSolver:  Solving for omega, Initial residual = 0.00136961, Final residual = 0.000105456, No Iterations 5
smoothSolver:  Solving for k, Initial residual = 0.014012, Final residual = 0.00110319, No Iterations 6
ExecutionTime = 0.8 s  ClockTime = 1 s

scalarTransport execute: age
smoothSolver:  Solving for age, Initial residual = 0.0159568, Final residual = 0.00151434, No Iterations 11

Time = 61

smoothSolver:  Solving for Ux, Initial residual = 0.0112548, Final residual = 0.000749418, No Iterations 6
smoothSolver:  Solving for Uy, Initial residual = 0.00647281, Final residual = 0.000435482, No Iterations 6
GAMG:  Solving for p, Initial residual = 0.0125497, Final residual = 0.00099959, No Iterations 2
time step continuity errors : sum local = 0.00252762, global = 0.000290222, cumulative = 0.0153434
smoothSolver:  Solving for omega, Initial residual = 0.00131862, Final residual = 0.000101481, No Iterations 5
smoothSolver:  Solving for k, Initial residual = 0.0136074, Final residual = 0.00107035, No Iterations 6
ExecutionTime = 0.81 s  ClockTime = 1 s

scalarTransport execute: age
smoothSolver:  Solving for age, Initial residual = 0.0169017, Final residual = 0.00159465, No Iterations 11

Time = 62

smoothSolver:  Solving for Ux, Initial residual = 0.0112221, Final residual = 0.000751599, No Iterations 6
smoothSolver:  Solving for Uy, Initial residual = 0.00656556, Final residual = 0.000446746, No Iterations 6
GAMG:  Solving for p, Initial residual = 0.0118542, Final residual = 0.000952342, No Iterations 2
time step continuity errors : sum local = 0.00239115, global = 0.000280161, cumulative = 0.0156236
smoothSolver:  Solving for omega, Initial residual = 0.00126728, Final residual = 9.77565e-05, No Iterations 5
smoothSolver:  Solving for k, Initial residual = 0.0132218, Final residual = 0.00103891, No Iterations 6
ExecutionTime = 0.83 s  ClockTime = 1 s

scalarTransport execute: age
smoothSolver:  Solving for age, Initial residual = 0.0178052, Final residual = 0.00169688, No Iterations 11

Time = 63

smoothSolver:  Solving for Ux, Initial residual = 0.0111581, Final residual = 0.000751887, No Iterations 6
smoothSolver:  Solving for Uy, Initial residual = 0.00663565, Final residual = 0.000456823, No Iterations 6
GAMG:  Solving for p, Initial residual = 0.0112706, Final residual = 0.000926359, No Iterations 2
time step continuity errors : sum local = 0.00231381, global = 0.000273164, cumulative = 0.0158967
smoothSolver:  Solving for omega, Initial residual = 0.00122946, Final residual = 9.42483e-05, No Iterations 5
smoothSolver:  Solving for k, Initial residual = 0.0128497, Final residual = 0.00100869, No Iterations 6
ExecutionTime = 0.84 s  ClockTime = 1 s

scalarTransport execute: age
smoothSolver:  Solving for age, Initial residual = 0.0182469, Final residual = 0.00176258, No Iterations 11

Time = 64

smoothSolver:  Solving for Ux, Initial residual = 0.0110242, Final residual = 0.00074962, No Iterations 6
smoothSolver:  Solving for Uy, Initial residual = 0.00668258, Final residual = 0.000465134, No Iterations 6
GAMG:  Solving for p, Initial residual = 0.0106959, Final residual = 0.000887336, No Iterations 2
time step continuity errors : sum local = 0.00221159, global = 0.000264809, cumulative = 0.0161615
smoothSolver:  Solving for omega, Initial residual = 0.00119715, Final residual = 9.09764e-05, No Iterations 5
smoothSolver:  Solving for k, Initial residual = 0.0124881, Final residual = 0.000979592, No Iterations 6
ExecutionTime = 0.85 s  ClockTime = 1 s

scalarTransport execute: age
smoothSolver:  Solving for age, Initial residual = 0.018769, Final residual = 0.00178527, No Iterations 11

Time = 65

smoothSolver:  Solving for Ux, Initial residual = 0.0109048, Final residual = 0.000745963, No Iterations 6
smoothSolver:  Solving for Uy, Initial residual = 0.0067191, Final residual = 0.000471991, No Iterations 6
GAMG:  Solving for p, Initial residual = 0.0102739, Final residual = 0.000847967, No Iterations 2
time step continuity errors : sum local = 0.00210973, global = 0.000255126, cumulative = 0.0164167
smoothSolver:  Solving for omega, Initial residual = 0.0011575, Final residual = 8.77993e-05, No Iterations 5
smoothSolver:  Solving for k, Initial residual = 0.012139, Final residual = 0.000951589, No Iterations 6
ExecutionTime = 0.86 s  ClockTime = 1 s

scalarTransport execute: age
smoothSolver:  Solving for age, Initial residual = 0.0192619, Final residual = 0.00181892, No Iterations 11

Time = 66

smoothSolver:  Solving for Ux, Initial residual = 0.0108018, Final residual = 0.000741479, No Iterations 6
smoothSolver:  Solving for Uy, Initial residual = 0.00673086, Final residual = 0.000477383, No Iterations 6
GAMG:  Solving for p, Initial residual = 0.0100165, Final residual = 0.000804756, No Iterations 2
time step continuity errors : sum local = 0.00199867, global = 0.000243619, cumulative = 0.0166603
smoothSolver:  Solving for omega, Initial residual = 0.0011192, Final residual = 8.47552e-05, No Iterations 5
smoothSolver:  Solving for k, Initial residual = 0.0118005, Final residual = 0.000924555, No Iterations 6
ExecutionTime = 0.88 s  ClockTime = 1 s

scalarTransport execute: age
smoothSolver:  Solving for age, Initial residual = 0.0195924, Final residual = 0.00180044, No Iterations 11

Time = 67

smoothSolver:  Solving for Ux, Initial residual = 0.0107165, Final residual = 0.00073659, No Iterations 6
smoothSolver:  Solving for Uy, Initial residual = 0.00672966, Final residual = 0.000481577, No Iterations 6
GAMG:  Solving for p, Initial residual = 0.0098318, Final residual = 0.000745073, No Iterations 2
time step continuity errors : sum local = 0.00184697, global = 0.000224368, cumulative = 0.0168846
smoothSolver:  Solving for omega, Initial residual = 0.00108383, Final residual = 8.18658e-05, No Iterations 5
smoothSolver:  Solving for k, Initial residual = 0.0114726, Final residual = 0.000898528, No Iterations 6
ExecutionTime = 0.89 s  ClockTime = 1 s

scalarTransport execute: age
smoothSolver:  Solving for age, Initial residual = 0.0198667, Final residual = 0.0017284, No Iterations 11

Time = 68

smoothSolver:  Solving for Ux, Initial residual = 0.0106692, Final residual = 0.000732763, No Iterations 6
smoothSolver:  Solving for Uy, Initial residual = 0.00672397, Final residual = 0.000485012, No Iterations 6
GAMG:  Solving for p, Initial residual = 0.00976527, Final residual = 0.000699121, No Iterations 2
time step continuity errors : sum local = 0.00172913, global = 0.000203232, cumulative = 0.0170879
smoothSolver:  Solving for omega, Initial residual = 0.00105103, Final residual = 7.91558e-05, No Iterations 5
smoothSolver:  Solving for k, Initial residual = 0.0111549, Final residual = 0.00087339, No Iterations 6
ExecutionTime = 0.9 s  ClockTime = 1 s

scalarTransport execute: age
smoothSolver:  Solving for age, Initial residual = 0.019998, Final residual = 0.00182055, No Iterations 11

Time = 69

smoothSolver:  Solving for Ux, Initial residual = 0.0106313, Final residual = 0.000729692, No Iterations 6
smoothSolver:  Solving for Uy, Initial residual = 0.00671661, Final residual = 0.000487838, No Iterations 6
GAMG:  Solving for p, Initial residual = 0.00984805, Final residual = 0.000660595, No Iterations 2
time step continuity errors : sum local = 0.00163062, global = 0.000181472, cumulative = 0.0172693
smoothSolver:  Solving for omega, Initial residual = 0.00102054, Final residual = 7.65808e-05, No Iterations 5
smoothSolver:  Solving for k, Initial residual = 0.0108458, Final residual = 0.000849096, No Iterations 6
ExecutionTime = 0.91 s  ClockTime = 1 s

scalarTransport execute: age
smoothSolver:  Solving for age, Initial residual = 0.0197901, Final residual = 0.00190893, No Iterations 11

Time = 70

smoothSolver:  Solving for Ux, Initial residual = 0.0105998, Final residual = 0.000727599, No Iterations 6
smoothSolver:  Solving for Uy, Initial residual = 0.00670932, Final residual = 0.000490172, No Iterations 6
GAMG:  Solving for p, Initial residual = 0.00993609, Final residual = 0.000631005, No Iterations 2
time step continuity errors : sum local = 0.00155416, global = 0.000159892, cumulative = 0.0174292
smoothSolver:  Solving for omega, Initial residual = 0.000991012, Final residual = 7.41441e-05, No Iterations 5
smoothSolver:  Solving for k, Initial residual = 0.0105467, Final residual = 0.000825646, No Iterations 6
ExecutionTime = 0.93 s  ClockTime = 1 s

scalarTransport execute: age
smoothSolver:  Solving for age, Initial residual = 0.0187288, Final residual = 0.00179615, No Iterations 11

Time = 71

smoothSolver:  Solving for Ux, Initial residual = 0.0105638, Final residual = 0.000726252, No Iterations 6
smoothSolver:  Solving for Uy, Initial residual = 0.00670492, Final residual = 0.000492039, No Iterations 6
GAMG:  Solving for p, Initial residual = 0.0100406, Final residual = 0.000604672, No Iterations 2
time step continuity errors : sum local = 0.00148602, global = 0.000139297, cumulative = 0.0175685
smoothSolver:  Solving for omega, Initial residual = 0.000961527, Final residual = 7.18529e-05, No Iterations 5
smoothSolver:  Solving for k, Initial residual = 0.0102605, Final residual = 0.000803038, No Iterations 6
ExecutionTime = 0.94 s  ClockTime = 1 s

scalarTransport execute: age
smoothSolver:  Solving for age, Initial residual = 0.0175678, Final residual = 0.00167112, No Iterations 11

Time = 72

smoothSolver:  Solving for Ux, Initial residual = 0.0105243, Final residual = 0.000724183, No Iterations 6
smoothSolver:  Solving for Uy, Initial residual = 0.00670393, Final residual = 0.000493409, No Iterations 6
GAMG:  Solving for p, Initial residual = 0.0101702, Final residual = 0.000590689, No Iterations 2
time step continuity errors : sum local = 0.00144714, global = 0.000124272, cumulative = 0.0176928
smoothSolver:  Solving for omega, Initial residual = 0.00093153, Final residual = 6.96582e-05, No Iterations 5
smoothSolver:  Solving for k, Initial residual = 0.00998628, Final residual = 0.000781205, No Iterations 6
ExecutionTime = 0.95 s  ClockTime = 1 s

scalarTransport execute: age
smoothSolver:  Solving for age, Initial residual = 0.015993, Final residual = 0.00158627, No Iterations 11

Time = 73

smoothSolver:  Solving for Ux, Initial residual = 0.0104543, Final residual = 0.000719834, No Iterations 6
smoothSolver:  Solving for Uy, Initial residual = 0.00669617, Final residual = 0.000494157, No Iterations 6
GAMG:  Solving for p, Initial residual = 0.010117, Final residual = 0.000576104, No Iterations 2
time step continuity errors : sum local = 0.00140318, global = 0.000111268, cumulative = 0.0178041
smoothSolver:  Solving for omega, Initial residual = 0.000908419, Final residual = 6.76018e-05, No Iterations 5
smoothSolver:  Solving for k, Initial residual = 0.00972243, Final residual = 0.000760087, No Iterations 6
ExecutionTime = 0.96 s  ClockTime = 1 s

scalarTransport execute: age
smoothSolver:  Solving for age, Initial residual = 0.0148462, Final residual = 0.00133609, No Iterations 12

Time = 74

smoothSolver:  Solving for Ux, Initial residual = 0.0103641, Final residual = 0.000714429, No Iterations 6
smoothSolver:  Solving for Uy, Initial residual = 0.00668933, Final residual = 0.000494352, No Iterations 6
GAMG:  Solving for p, Initial residual = 0.00994545, Final residual = 0.000565626, No Iterations 2
time step continuity errors : sum local = 0.00136863, global = 0.000101527, cumulative = 0.0179056
smoothSolver:  Solving for omega, Initial residual = 0.000881923, Final residual = 6.56128e-05, No Iterations 5
smoothSolver:  Solving for k, Initial residual = 0.00946864, Final residual = 0.000739634, No Iterations 6
ExecutionTime = 0.98 s  ClockTime = 1 s

scalarTransport execute: age
smoothSolver:  Solving for age, Initial residual = 0.0137559, Final residual = 0.00128142, No Iterations 12

Time = 75

smoothSolver:  Solving for Ux, Initial residual = 0.0102608, Final residual = 0.000707903, No Iterations 6
smoothSolver:  Solving for Uy, Initial residual = 0.00668884, Final residual = 0.000494164, No Iterations 6
GAMG:  Solving for p, Initial residual = 0.00970613, Final residual = 0.00055969, No Iterations 2
time step continuity errors : sum local = 0.00134268, global = 9.35317e-05, cumulative = 0.0179991
smoothSolver:  Solving for omega, Initial residual = 0.000857032, Final residual = 6.35991e-05, No Iterations 5
smoothSolver:  Solving for k, Initial residual = 0.00922216, Final residual = 0.00071982, No Iterations 6
ExecutionTime = 0.99 s  ClockTime = 1 s

scalarTransport execute: age
smoothSolver:  Solving for age, Initial residual = 0.0129831, Final residual = 0.00125369, No Iterations 12

Time = 76

smoothSolver:  Solving for Ux, Initial residual = 0.0101486, Final residual = 0.000700091, No Iterations 6
smoothSolver:  Solving for Uy, Initial residual = 0.00668093, Final residual = 0.000492858, No Iterations 6
GAMG:  Solving for p, Initial residual = 0.00945585, Final residual = 0.000555434, No Iterations 2
time step continuity errors : sum local = 0.00132122, global = 8.87326e-05, cumulative = 0.0180879
smoothSolver:  Solving for omega, Initial residual = 0.000832965, Final residual = 6.16074e-05, No Iterations 5
smoothSolver:  Solving for k, Initial residual = 0.00898172, Final residual = 0.000700595, No Iterations 6
ExecutionTime = 1 s  ClockTime = 1 s

scalarTransport execute: age
smoothSolver:  Solving for age, Initial residual = 0.0125559, Final residual = 0.00108963, No Iterations 13

Time = 77

smoothSolver:  Solving for Ux, Initial residual = 0.0100225, Final residual = 0.000690955, No Iterations 6
smoothSolver:  Solving for Uy, Initial residual = 0.00665543, Final residual = 0.00049017, No Iterations 6
GAMG:  Solving for p, Initial residual = 0.00915889, Final residual = 0.000551592, No Iterations 2
time step continuity errors : sum local = 0.00130353, global = 8.71235e-05, cumulative = 0.018175
smoothSolver:  Solving for omega, Initial residual = 0.000811755, Final residual = 5.9632e-05, No Iterations 5
smoothSolver:  Solving for k, Initial residual = 0.00874688, Final residual = 0.000681916, No Iterations 6
ExecutionTime = 1.02 s  ClockTime = 1 s

scalarTransport execute: age
smoothSolver:  Solving for age, Initial residual = 0.0122293, Final residual = 0.00112223, No Iterations 13

Time = 78

smoothSolver:  Solving for Ux, Initial residual = 0.00987337, Final residual = 0.000680221, No Iterations 6
smoothSolver:  Solving for Uy, Initial residual = 0.00661417, Final residual = 0.000485788, No Iterations 6
GAMG:  Solving for p, Initial residual = 0.00883918, Final residual = 0.000543954, No Iterations 2
time step continuity errors : sum local = 0.00127687, global = 8.62668e-05, cumulative = 0.0182613
smoothSolver:  Solving for omega, Initial residual = 0.000795463, Final residual = 5.76966e-05, No Iterations 5
smoothSolver:  Solving for k, Initial residual = 0.00851782, Final residual = 0.000663772, No Iterations 6
ExecutionTime = 1.03 s  ClockTime = 1 s

scalarTransport execute: age
smoothSolver:  Solving for age, Initial residual = 0.011963, Final residual = 0.00114697, No Iterations 13

Time = 79

smoothSolver:  Solving for Ux, Initial residual = 0.009721, Final residual = 0.000668837, No Iterations 6
smoothSolver:  Solving for Uy, Initial residual = 0.00655128, Final residual = 0.000479968, No Iterations 6
GAMG:  Solving for p, Initial residual = 0.008743, Final residual = 0.000537698, No Iterations 2
time step continuity errors : sum local = 0.0012551, global = 8.62592e-05, cumulative = 0.0183475
smoothSolver:  Solving for omega, Initial residual = 0.000776689, Final residual = 5.58923e-05, No Iterations 5
smoothSolver:  Solving for k, Initial residual = 0.00829524, Final residual = 0.000646134, No Iterations 6
ExecutionTime = 1.04 s  ClockTime = 1 s

scalarTransport execute: age
smoothSolver:  Solving for age, Initial residual = 0.0116424, Final residual = 0.00103244, No Iterations 14

Time = 80

smoothSolver:  Solving for Ux, Initial residual = 0.00955936, Final residual = 0.000656361, No Iterations 6
smoothSolver:  Solving for Uy, Initial residual = 0.00646792, Final residual = 0.000472717, No Iterations 6
GAMG:  Solving for p, Initial residual = 0.00870978, Final residual = 0.000542866, No Iterations 2
time step continuity errors : sum local = 0.00125846, global = 8.56278e-05, cumulative = 0.0184331
smoothSolver:  Solving for omega, Initial residual = 0.000759416, Final residual = 5.4226e-05, No Iterations 5
smoothSolver:  Solving for k, Initial residual = 0.00807691, Final residual = 0.000628964, No Iterations 6
ExecutionTime = 1.05 s  ClockTime = 1 s

scalarTransport execute: age
smoothSolver:  Solving for age, Initial residual = 0.0114262, Final residual = 0.00105661, No Iterations 14

Time = 81

smoothSolver:  Solving for Ux, Initial residual = 0.00938788, Final residual = 0.000642933, No Iterations 6
smoothSolver:  Solving for Uy, Initial residual = 0.00636656, Final residual = 0.000464187, No Iterations 6
GAMG:  Solving for p, Initial residual = 0.0086835, Final residual = 0.000548996, No Iterations 2
time step continuity errors : sum local = 0.00126507, global = 8.41605e-05, cumulative = 0.0185173
smoothSolver:  Solving for omega, Initial residual = 0.000744133, Final residual = 5.27381e-05, No Iterations 5
smoothSolver:  Solving for k, Initial residual = 0.00786444, Final residual = 0.000612236, No Iterations 6
ExecutionTime = 1.07 s  ClockTime = 1 s

scalarTransport execute: age
smoothSolver:  Solving for age, Initial residual = 0.0112752, Final residual = 0.00108188, No Iterations 14

Time = 82

smoothSolver:  Solving for Ux, Initial residual = 0.00920721, Final residual = 0.0006287, No Iterations 6
smoothSolver:  Solving for Uy, Initial residual = 0.00625134, Final residual = 0.000454641, No Iterations 6
GAMG:  Solving for p, Initial residual = 0.0086516, Final residual = 0.000552234, No Iterations 2
time step continuity errors : sum local = 0.00126604, global = 8.06314e-05, cumulative = 0.0185979
smoothSolver:  Solving for omega, Initial residual = 0.000727842, Final residual = 5.13015e-05, No Iterations 5
smoothSolver:  Solving for k, Initial residual = 0.00765595, Final residual = 0.000595958, No Iterations 6
ExecutionTime = 1.08 s  ClockTime = 1 s

scalarTransport execute: age
smoothSolver:  Solving for age, Initial residual = 0.0110957, Final residual = 0.00109721, No Iterations 14

Time = 83

smoothSolver:  Solving for Ux, Initial residual = 0.00901351, Final residual = 0.0006139, No Iterations 6
smoothSolver:  Solving for Uy, Initial residual = 0.00612908, Final residual = 0.000444234, No Iterations 6
GAMG:  Solving for p, Initial residual = 0.00861041, Final residual = 0.000553131, No Iterations 2
time step continuity errors : sum local = 0.00126231, global = 7.58665e-05, cumulative = 0.0186738
smoothSolver:  Solving for omega, Initial residual = 0.000710273, Final residual = 4.98551e-05, No Iterations 5
smoothSolver:  Solving for k, Initial residual = 0.00745133, Final residual = 0.000580105, No Iterations 6
ExecutionTime = 1.09 s  ClockTime = 1 s

scalarTransport execute: age
smoothSolver:  Solving for age, Initial residual = 0.0109691, Final residual = 0.000961786, No Iterations 15

Time = 84

smoothSolver:  Solving for Ux, Initial residual = 0.00880843, Final residual = 0.00059876, No Iterations 6
smoothSolver:  Solving for Uy, Initial residual = 0.00599273, Final residual = 0.00043316, No Iterations 6
GAMG:  Solving for p, Initial residual = 0.0085527, Final residual = 0.000543274, No Iterations 2
time step continuity errors : sum local = 0.00123444, global = 6.63427e-05, cumulative = 0.0187401
smoothSolver:  Solving for omega, Initial residual = 0.000693809, Final residual = 4.84585e-05, No Iterations 5
smoothSolver:  Solving for k, Initial residual = 0.00725188, Final residual = 0.000564672, No Iterations 6
ExecutionTime = 1.11 s  ClockTime = 1 s

scalarTransport execute: age
smoothSolver:  Solving for age, Initial residual = 0.0109422, Final residual = 0.00095803, No Iterations 15

Time = 85

smoothSolver:  Solving for Ux, Initial residual = 0.00859758, Final residual = 0.000583926, No Iterations 6
smoothSolver:  Solving for Uy, Initial residual = 0.00584943, Final residual = 0.000421202, No Iterations 6
GAMG:  Solving for p, Initial residual = 0.00840013, Final residual = 0.000541407, No Iterations 2
time step continuity errors : sum local = 0.00122489, global = 6.02995e-05, cumulative = 0.0188004
smoothSolver:  Solving for omega, Initial residual = 0.000674159, Final residual = 4.70527e-05, No Iterations 5
smoothSolver:  Solving for k, Initial residual = 0.00705704, Final residual = 0.000549631, No Iterations 6
ExecutionTime = 1.12 s  ClockTime = 1 s

scalarTransport execute: age
smoothSolver:  Solving for age, Initial residual = 0.0108998, Final residual = 0.00108774, No Iterations 14

Time = 86

smoothSolver:  Solving for Ux, Initial residual = 0.00836843, Final residual = 0.00056768, No Iterations 6
smoothSolver:  Solving for Uy, Initial residual = 0.00569289, Final residual = 0.000408381, No Iterations 6
GAMG:  Solving for p, Initial residual = 0.00820629, Final residual = 0.000533253, No Iterations 2
time step continuity errors : sum local = 0.00120071, global = 5.22402e-05, cumulative = 0.0188527
smoothSolver:  Solving for omega, Initial residual = 0.000656667, Final residual = 4.56035e-05, No Iterations 5
smoothSolver:  Solving for k, Initial residual = 0.00686719, Final residual = 0.000534918, No Iterations 6
ExecutionTime = 1.13 s  ClockTime = 1 s

scalarTransport execute: age
smoothSolver:  Solving for age, Initial residual = 0.0107379, Final residual = 0.000941472, No Iterations 15

Time = 87

smoothSolver:  Solving for Ux, Initial residual = 0.00813615, Final residual = 0.000551285, No Iterations 6
smoothSolver:  Solving for Uy, Initial residual = 0.00552311, Final residual = 0.000394654, No Iterations 6
GAMG:  Solving for p, Initial residual = 0.00796131, Final residual = 0.000525818, No Iterations 2
time step continuity errors : sum local = 0.00117879, global = 4.51136e-05, cumulative = 0.0188978
smoothSolver:  Solving for omega, Initial residual = 0.000635879, Final residual = 4.41287e-05, No Iterations 5
smoothSolver:  Solving for k, Initial residual = 0.00668188, Final residual = 0.000520549, No Iterations 6
ExecutionTime = 1.15 s  ClockTime = 1 s

scalarTransport execute: age
smoothSolver:  Solving for age, Initial residual = 0.0104747, Final residual = 0.00102441, No Iterations 14

Time = 88

smoothSolver:  Solving for Ux, Initial residual = 0.00790022, Final residual = 0.00053469, No Iterations 6
smoothSolver:  Solving for Uy, Initial residual = 0.00534504, Final residual = 0.000380089, No Iterations 6
GAMG:  Solving for p, Initial residual = 0.00769379, Final residual = 0.000518173, No Iterations 2
time step continuity errors : sum local = 0.00115705, global = 3.76786e-05, cumulative = 0.0189355
smoothSolver:  Solving for omega, Initial residual = 0.000613726, Final residual = 4.25911e-05, No Iterations 5
smoothSolver:  Solving for k, Initial residual = 0.00650047, Final residual = 0.000506515, No Iterations 6
ExecutionTime = 1.16 s  ClockTime = 1 s

scalarTransport execute: age
smoothSolver:  Solving for age, Initial residual = 0.010017, Final residual = 0.000940489, No Iterations 14

Time = 89

smoothSolver:  Solving for Ux, Initial residual = 0.00766083, Final residual = 0.000517975, No Iterations 6
smoothSolver:  Solving for Uy, Initial residual = 0.0051572, Final residual = 0.00036475, No Iterations 6
GAMG:  Solving for p, Initial residual = 0.00744401, Final residual = 0.000510778, No Iterations 2
time step continuity errors : sum local = 0.00113619, global = 3.04467e-05, cumulative = 0.0189659
smoothSolver:  Solving for omega, Initial residual = 0.000592684, Final residual = 4.11451e-05, No Iterations 5
smoothSolver:  Solving for k, Initial residual = 0.00632323, Final residual = 0.000492768, No Iterations 6
ExecutionTime = 1.17 s  ClockTime = 1 s

scalarTransport execute: age
smoothSolver:  Solving for age, Initial residual = 0.00955743, Final residual = 0.000849977, No Iterations 14

Time = 90

smoothSolver:  Solving for Ux, Initial residual = 0.00741684, Final residual = 0.000500983, No Iterations 6
smoothSolver:  Solving for Uy, Initial residual = 0.00495876, Final residual = 0.000348922, No Iterations 6
GAMG:  Solving for p, Initial residual = 0.00723782, Final residual = 0.000502372, No Iterations 2
time step continuity errors : sum local = 0.00111336, global = 2.24317e-05, cumulative = 0.0189883
smoothSolver:  Solving for omega, Initial residual = 0.000573917, Final residual = 3.97936e-05, No Iterations 5
smoothSolver:  Solving for k, Initial residual = 0.00614897, Final residual = 0.00047925, No Iterations 6
ExecutionTime = 1.18 s  ClockTime = 1 s

scalarTransport execute: age
smoothSolver:  Solving for age, Initial residual = 0.00900823, Final residual = 0.000880913, No Iterations 13

Time = 91

smoothSolver:  Solving for Ux, Initial residual = 0.00716776, Final residual = 0.000483725, No Iterations 6
smoothSolver:  Solving for Uy, Initial residual = 0.00475585, Final residual = 0.000332775, No Iterations 6
GAMG:  Solving for p, Initial residual = 0.0070729, Final residual = 0.000492944, No Iterations 2
time step continuity errors : sum local = 0.00108863, global = 1.58128e-05, cumulative = 0.0190042
smoothSolver:  Solving for omega, Initial residual = 0.000549643, Final residual = 3.83662e-05, No Iterations 5
smoothSolver:  Solving for k, Initial residual = 0.0059781, Final residual = 0.000465967, No Iterations 6
ExecutionTime = 1.2 s  ClockTime = 1 s

scalarTransport execute: age
smoothSolver:  Solving for age, Initial residual = 0.00851855, Final residual = 0.000787174, No Iterations 13

Time = 92

smoothSolver:  Solving for Ux, Initial residual = 0.0069146, Final residual = 0.000466202, No Iterations 6
smoothSolver:  Solving for Uy, Initial residual = 0.00455739, Final residual = 0.000316647, No Iterations 6
GAMG:  Solving for p, Initial residual = 0.00693266, Final residual = 0.000481895, No Iterations 2
time step continuity errors : sum local = 0.00106064, global = 1.01321e-05, cumulative = 0.0190143
smoothSolver:  Solving for omega, Initial residual = 0.000529364, Final residual = 3.70516e-05, No Iterations 5
smoothSolver:  Solving for k, Initial residual = 0.00581192, Final residual = 0.000452813, No Iterations 6
ExecutionTime = 1.21 s  ClockTime = 1 s

scalarTransport execute: age
smoothSolver:  Solving for age, Initial residual = 0.00798071, Final residual = 0.000700398, No Iterations 13

Time = 93

smoothSolver:  Solving for Ux, Initial residual = 0.00666159, Final residual = 0.000448576, No Iterations 6
smoothSolver:  Solving for Uy, Initial residual = 0.00435652, Final residual = 0.000300663, No Iterations 6
GAMG:  Solving for p, Initial residual = 0.00676226, Final residual = 0.000469815, No Iterations 2
time step continuity errors : sum local = 0.00103047, global = 9.82937e-06, cumulative = 0.0190241
smoothSolver:  Solving for omega, Initial residual = 0.000515151, Final residual = 3.59216e-05, No Iterations 5
smoothSolver:  Solving for k, Initial residual = 0.00564674, Final residual = 0.000439634, No Iterations 6
ExecutionTime = 1.22 s  ClockTime = 1 s

scalarTransport execute: age
smoothSolver:  Solving for age, Initial residual = 0.00754419, Final residual = 0.00071187, No Iterations 12

Time = 94

smoothSolver:  Solving for Ux, Initial residual = 0.00640711, Final residual = 0.00043031, No Iterations 6
smoothSolver:  Solving for Uy, Initial residual = 0.00416014, Final residual = 0.000285076, No Iterations 6
GAMG:  Solving for p, Initial residual = 0.00658072, Final residual = 0.000452763, No Iterations 2
time step continuity errors : sum local = 0.00099092, global = 1.09825e-05, cumulative = 0.0190351
smoothSolver:  Solving for omega, Initial residual = 0.000500981, Final residual = 3.47665e-05, No Iterations 5
smoothSolver:  Solving for k, Initial residual = 0.00548223, Final residual = 0.000426444, No Iterations 6
ExecutionTime = 1.24 s  ClockTime = 1 s

scalarTransport execute: age
smoothSolver:  Solving for age, Initial residual = 0.00706757, Final residual = 0.000625092, No Iterations 12

Time = 95

smoothSolver:  Solving for Ux, Initial residual = 0.00615684, Final residual = 0.000412185, No Iterations 6
smoothSolver:  Solving for Uy, Initial residual = 0.00397355, Final residual = 0.000270115, No Iterations 6
GAMG:  Solving for p, Initial residual = 0.00637325, Final residual = 0.000433956, No Iterations 2
time step continuity errors : sum local = 0.000947774, global = 1.0095e-05, cumulative = 0.0190452
smoothSolver:  Solving for omega, Initial residual = 0.000485882, Final residual = 3.36023e-05, No Iterations 5
smoothSolver:  Solving for k, Initial residual = 0.00531803, Final residual = 0.000413202, No Iterations 6
ExecutionTime = 1.25 s  ClockTime = 1 s

scalarTransport execute: age
smoothSolver:  Solving for age, Initial residual = 0.00670806, Final residual = 0.000652814, No Iterations 11

Time = 96

[...]

smoothSolver:  Solving for Ux, Initial residual = 5.3707e-07, Final residual = 4.6937e-08, No Iterations 5
smoothSolver:  Solving for Uy, Initial residual = 3.30707e-07, Final residual = 2.84718e-08, No Iterations 5
GAMG:  Solving for p, Initial residual = 1.26644e-06, Final residual = 7.39642e-08, No Iterations 2
time step continuity errors : sum local = 1.70695e-07, global = -1.16145e-09, cumulative = 0.0201579
smoothSolver:  Solving for omega, Initial residual = 4.07992e-08, Final residual = 5.8273e-09, No Iterations 3
smoothSolver:  Solving for k, Initial residual = 8.91023e-08, Final residual = 7.65864e-09, No Iterations 5
ExecutionTime = 7.89 s  ClockTime = 8 s

scalarTransport execute: age
smoothSolver:  Solving for age, Initial residual = 0.00025452, Final residual = 2.34188e-05, No Iterations 15

Time = 620

smoothSolver:  Solving for Ux, Initial residual = 5.32189e-07, Final residual = 4.64812e-08, No Iterations 5
smoothSolver:  Solving for Uy, Initial residual = 3.27531e-07, Final residual = 2.81975e-08, No Iterations 5
GAMG:  Solving for p, Initial residual = 1.25439e-06, Final residual = 7.30584e-08, No Iterations 2
time step continuity errors : sum local = 1.68604e-07, global = -8.80518e-10, cumulative = 0.0201579
smoothSolver:  Solving for omega, Initial residual = 4.02681e-08, Final residual = 5.791e-09, No Iterations 3
smoothSolver:  Solving for k, Initial residual = 8.75731e-08, Final residual = 7.51289e-09, No Iterations 5
ExecutionTime = 7.9 s  ClockTime = 8 s

scalarTransport execute: age
smoothSolver:  Solving for age, Initial residual = 0.000254075, Final residual = 2.33773e-05, No Iterations 15

Time = 621

smoothSolver:  Solving for Ux, Initial residual = 5.27357e-07, Final residual = 4.60395e-08, No Iterations 5
smoothSolver:  Solving for Uy, Initial residual = 3.24755e-07, Final residual = 2.79722e-08, No Iterations 5
GAMG:  Solving for p, Initial residual = 1.24403e-06, Final residual = 7.24611e-08, No Iterations 2
time step continuity errors : sum local = 1.67225e-07, global = -6.37493e-10, cumulative = 0.0201579
smoothSolver:  Solving for omega, Initial residual = 3.99935e-08, Final residual = 5.7552e-09, No Iterations 3
smoothSolver:  Solving for k, Initial residual = 8.61198e-08, Final residual = 7.37088e-09, No Iterations 5
ExecutionTime = 7.91 s  ClockTime = 8 s

scalarTransport execute: age
smoothSolver:  Solving for age, Initial residual = 0.000253631, Final residual = 2.3336e-05, No Iterations 15

Time = 622

smoothSolver:  Solving for Ux, Initial residual = 5.22461e-07, Final residual = 4.56066e-08, No Iterations 5
smoothSolver:  Solving for Uy, Initial residual = 3.22041e-07, Final residual = 2.77518e-08, No Iterations 5
GAMG:  Solving for p, Initial residual = 1.23401e-06, Final residual = 7.23203e-08, No Iterations 2
time step continuity errors : sum local = 1.669e-07, global = -1.48547e-09, cumulative = 0.0201579
smoothSolver:  Solving for omega, Initial residual = 3.94092e-08, Final residual = 9.92906e-09, No Iterations 2
smoothSolver:  Solving for k, Initial residual = 8.47003e-08, Final residual = 7.22325e-09, No Iterations 5
ExecutionTime = 7.92 s  ClockTime = 8 s

scalarTransport execute: age
smoothSolver:  Solving for age, Initial residual = 0.000253189, Final residual = 2.32947e-05, No Iterations 15

Time = 623

smoothSolver:  Solving for Ux, Initial residual = 5.17881e-07, Final residual = 4.52313e-08, No Iterations 5
smoothSolver:  Solving for Uy, Initial residual = 3.19056e-07, Final residual = 2.75142e-08, No Iterations 5
GAMG:  Solving for p, Initial residual = 1.2235e-06, Final residual = 7.12326e-08, No Iterations 2
time step continuity errors : sum local = 1.6439e-07, global = -1.38643e-09, cumulative = 0.0201579
smoothSolver:  Solving for omega, Initial residual = 4.06909e-08, Final residual = 5.86885e-09, No Iterations 3
smoothSolver:  Solving for k, Initial residual = 8.328e-08, Final residual = 7.08966e-09, No Iterations 5
ExecutionTime = 7.94 s  ClockTime = 8 s

scalarTransport execute: age
smoothSolver:  Solving for age, Initial residual = 0.00025275, Final residual = 2.32538e-05, No Iterations 15

Time = 624

smoothSolver:  Solving for Ux, Initial residual = 5.12904e-07, Final residual = 4.47665e-08, No Iterations 5
smoothSolver:  Solving for Uy, Initial residual = 3.15702e-07, Final residual = 2.72229e-08, No Iterations 5
GAMG:  Solving for p, Initial residual = 1.21095e-06, Final residual = 7.02911e-08, No Iterations 2
time step continuity errors : sum local = 1.62217e-07, global = -1.14061e-09, cumulative = 0.0201579
smoothSolver:  Solving for omega, Initial residual = 3.97864e-08, Final residual = 5.78529e-09, No Iterations 3
smoothSolver:  Solving for k, Initial residual = 8.18551e-08, Final residual = 6.95882e-09, No Iterations 5
ExecutionTime = 7.95 s  ClockTime = 8 s

scalarTransport execute: age
smoothSolver:  Solving for age, Initial residual = 0.000252312, Final residual = 2.3213e-05, No Iterations 15

Time = 625

smoothSolver:  Solving for Ux, Initial residual = 5.07949e-07, Final residual = 4.43157e-08, No Iterations 5
smoothSolver:  Solving for Uy, Initial residual = 3.12801e-07, Final residual = 2.69869e-08, No Iterations 5
GAMG:  Solving for p, Initial residual = 1.19952e-06, Final residual = 6.96734e-08, No Iterations 2
time step continuity errors : sum local = 1.60792e-07, global = -9.19012e-10, cumulative = 0.0201579
smoothSolver:  Solving for omega, Initial residual = 3.92851e-08, Final residual = 9.92698e-09, No Iterations 2
smoothSolver:  Solving for k, Initial residual = 8.048e-08, Final residual = 6.82213e-09, No Iterations 5
ExecutionTime = 7.96 s  ClockTime = 8 s

scalarTransport execute: age
smoothSolver:  Solving for age, Initial residual = 0.000251876, Final residual = 2.31724e-05, No Iterations 15

Time = 626

smoothSolver:  Solving for Ux, Initial residual = 5.02598e-07, Final residual = 4.38437e-08, No Iterations 5
smoothSolver:  Solving for Uy, Initial residual = 3.10026e-07, Final residual = 2.6757e-08, No Iterations 5
GAMG:  Solving for p, Initial residual = 1.18965e-06, Final residual = 6.92272e-08, No Iterations 2
time step continuity errors : sum local = 1.59762e-07, global = -7.11093e-10, cumulative = 0.0201579
smoothSolver:  Solving for omega, Initial residual = 3.9957e-08, Final residual = 5.8459e-09, No Iterations 3
smoothSolver:  Solving for k, Initial residual = 7.91769e-08, Final residual = 6.70043e-09, No Iterations 5
ExecutionTime = 7.97 s  ClockTime = 8 s

scalarTransport execute: age
smoothSolver:  Solving for age, Initial residual = 0.000251442, Final residual = 2.31319e-05, No Iterations 15

Time = 627

smoothSolver:  Solving for Ux, Initial residual = 4.97791e-07, Final residual = 4.34176e-08, No Iterations 5
smoothSolver:  Solving for Uy, Initial residual = 3.06992e-07, Final residual = 2.65088e-08, No Iterations 5
GAMG:  Solving for p, Initial residual = 1.17846e-06, Final residual = 6.90104e-08, No Iterations 2
time step continuity errors : sum local = 1.59262e-07, global = -1.58054e-09, cumulative = 0.0201579
smoothSolver:  Solving for omega, Initial residual = 3.89681e-08, Final residual = 9.95914e-09, No Iterations 2
smoothSolver:  Solving for k, Initial residual = 7.79133e-08, Final residual = 6.57376e-09, No Iterations 5
ExecutionTime = 7.98 s  ClockTime = 8 s

scalarTransport execute: age
smoothSolver:  Solving for age, Initial residual = 0.000251009, Final residual = 2.30914e-05, No Iterations 15

Time = 628

smoothSolver:  Solving for Ux, Initial residual = 4.93135e-07, Final residual = 4.30427e-08, No Iterations 5
smoothSolver:  Solving for Uy, Initial residual = 3.03743e-07, Final residual = 2.62509e-08, No Iterations 5
GAMG:  Solving for p, Initial residual = 1.16614e-06, Final residual = 6.78031e-08, No Iterations 2
time step continuity errors : sum local = 1.56475e-07, global = -1.51003e-09, cumulative = 0.0201579
smoothSolver:  Solving for omega, Initial residual = 3.98964e-08, Final residual = 5.84737e-09, No Iterations 3
smoothSolver:  Solving for k, Initial residual = 7.66138e-08, Final residual = 6.45722e-09, No Iterations 5
ExecutionTime = 8 s  ClockTime = 8 s

scalarTransport execute: age
smoothSolver:  Solving for age, Initial residual = 0.000250579, Final residual = 2.30514e-05, No Iterations 15

Time = 629

smoothSolver:  Solving for Ux, Initial residual = 4.88163e-07, Final residual = 4.25814e-08, No Iterations 5
smoothSolver:  Solving for Uy, Initial residual = 3.00351e-07, Final residual = 2.59541e-08, No Iterations 5
GAMG:  Solving for p, Initial residual = 1.15308e-06, Final residual = 6.67662e-08, No Iterations 2
time step continuity errors : sum local = 1.54082e-07, global = -1.30933e-09, cumulative = 0.0201579
smoothSolver:  Solving for omega, Initial residual = 3.87932e-08, Final residual = 9.92957e-09, No Iterations 2
smoothSolver:  Solving for k, Initial residual = 7.53165e-08, Final residual = 6.33471e-09, No Iterations 5
ExecutionTime = 8.01 s  ClockTime = 8 s

scalarTransport execute: age
smoothSolver:  Solving for age, Initial residual = 0.00025015, Final residual = 2.30116e-05, No Iterations 15

Time = 630

smoothSolver:  Solving for Ux, Initial residual = 4.82844e-07, Final residual = 4.20997e-08, No Iterations 5
smoothSolver:  Solving for Uy, Initial residual = 2.97429e-07, Final residual = 2.57119e-08, No Iterations 5
GAMG:  Solving for p, Initial residual = 1.14184e-06, Final residual = 6.61094e-08, No Iterations 2
time step continuity errors : sum local = 1.52566e-07, global = -1.12322e-09, cumulative = 0.0201579
smoothSolver:  Solving for omega, Initial residual = 3.93152e-08, Final residual = 5.82178e-09, No Iterations 3
smoothSolver:  Solving for k, Initial residual = 7.41124e-08, Final residual = 6.22398e-09, No Iterations 5
ExecutionTime = 8.02 s  ClockTime = 8 s

scalarTransport execute: age
smoothSolver:  Solving for age, Initial residual = 0.000249723, Final residual = 2.29721e-05, No Iterations 15

Time = 631

smoothSolver:  Solving for Ux, Initial residual = 4.77872e-07, Final residual = 4.1663e-08, No Iterations 5
smoothSolver:  Solving for Uy, Initial residual = 2.94512e-07, Final residual = 2.54729e-08, No Iterations 5
GAMG:  Solving for p, Initial residual = 1.13115e-06, Final residual = 6.56011e-08, No Iterations 2
time step continuity errors : sum local = 1.51393e-07, global = -9.50977e-10, cumulative = 0.0201579
smoothSolver:  Solving for omega, Initial residual = 3.83371e-08, Final residual = 9.85972e-09, No Iterations 2
smoothSolver:  Solving for k, Initial residual = 7.28928e-08, Final residual = 9.83283e-09, No Iterations 4
ExecutionTime = 8.03 s  ClockTime = 8 s

scalarTransport execute: age
smoothSolver:  Solving for age, Initial residual = 0.000249297, Final residual = 2.29329e-05, No Iterations 15

Time = 632

smoothSolver:  Solving for Ux, Initial residual = 4.72554e-07, Final residual = 4.1195e-08, No Iterations 5
smoothSolver:  Solving for Uy, Initial residual = 2.91598e-07, Final residual = 2.52325e-08, No Iterations 5
GAMG:  Solving for p, Initial residual = 1.11954e-06, Final residual = 6.50916e-08, No Iterations 2
time step continuity errors : sum local = 1.50217e-07, global = -8.34124e-10, cumulative = 0.0201579
smoothSolver:  Solving for omega, Initial residual = 3.86767e-08, Final residual = 5.77258e-09, No Iterations 3
smoothSolver:  Solving for k, Initial residual = 7.18726e-08, Final residual = 9.68499e-09, No Iterations 4
ExecutionTime = 8.04 s  ClockTime = 8 s

scalarTransport execute: age
smoothSolver:  Solving for age, Initial residual = 0.000248871, Final residual = 2.2894e-05, No Iterations 15

Time = 633

smoothSolver:  Solving for Ux, Initial residual = 4.67658e-07, Final residual = 4.07683e-08, No Iterations 5
smoothSolver:  Solving for Uy, Initial residual = 2.88381e-07, Final residual = 2.49717e-08, No Iterations 5
GAMG:  Solving for p, Initial residual = 1.10715e-06, Final residual = 6.47556e-08, No Iterations 2
time step continuity errors : sum local = 1.49442e-07, global = -1.70383e-09, cumulative = 0.0201579
smoothSolver:  Solving for omega, Initial residual = 3.74944e-08, Final residual = 9.74435e-09, No Iterations 2
smoothSolver:  Solving for k, Initial residual = 7.08896e-08, Final residual = 9.53225e-09, No Iterations 4
ExecutionTime = 8.06 s  ClockTime = 8 s

scalarTransport execute: age
smoothSolver:  Solving for age, Initial residual = 0.000248446, Final residual = 2.28552e-05, No Iterations 15

Time = 634

smoothSolver:  Solving for Ux, Initial residual = 4.62934e-07, Final residual = 4.03842e-08, No Iterations 5
smoothSolver:  Solving for Uy, Initial residual = 2.85088e-07, Final residual = 2.47075e-08, No Iterations 5
GAMG:  Solving for p, Initial residual = 1.09465e-06, Final residual = 6.34768e-08, No Iterations 2
time step continuity errors : sum local = 1.46491e-07, global = -1.69275e-09, cumulative = 0.0201579
smoothSolver:  Solving for omega, Initial residual = 3.82168e-08, Final residual = 9.87975e-09, No Iterations 2
smoothSolver:  Solving for k, Initial residual = 6.9885e-08, Final residual = 9.38419e-09, No Iterations 4
ExecutionTime = 8.07 s  ClockTime = 8 s

scalarTransport execute: age
smoothSolver:  Solving for age, Initial residual = 0.000248024, Final residual = 2.28168e-05, No Iterations 15

Time = 635

smoothSolver:  Solving for Ux, Initial residual = 4.57515e-07, Final residual = 3.98831e-08, No Iterations 5
smoothSolver:  Solving for Uy, Initial residual = 2.8167e-07, Final residual = 2.44044e-08, No Iterations 5
GAMG:  Solving for p, Initial residual = 1.08197e-06, Final residual = 6.24252e-08, No Iterations 2
time step continuity errors : sum local = 1.44064e-07, global = -1.54393e-09, cumulative = 0.0201579
smoothSolver:  Solving for omega, Initial residual = 3.81959e-08, Final residual = 9.96434e-09, No Iterations 2
smoothSolver:  Solving for k, Initial residual = 6.89041e-08, Final residual = 9.24081e-09, No Iterations 4
ExecutionTime = 8.08 s  ClockTime = 8 s

scalarTransport execute: age
smoothSolver:  Solving for age, Initial residual = 0.000247603, Final residual = 2.27785e-05, No Iterations 15

Time = 636

smoothSolver:  Solving for Ux, Initial residual = 4.52138e-07, Final residual = 3.9395e-08, No Iterations 5
smoothSolver:  Solving for Uy, Initial residual = 2.78583e-07, Final residual = 2.41488e-08, No Iterations 5
GAMG:  Solving for p, Initial residual = 1.07079e-06, Final residual = 6.17499e-08, No Iterations 2
time step continuity errors : sum local = 1.42505e-07, global = -1.40374e-09, cumulative = 0.0201579
smoothSolver:  Solving for omega, Initial residual = 3.82733e-08, Final residual = 5.79027e-09, No Iterations 3
smoothSolver:  Solving for k, Initial residual = 6.79243e-08, Final residual = 9.10439e-09, No Iterations 4
ExecutionTime = 8.09 s  ClockTime = 8 s

scalarTransport execute: age
smoothSolver:  Solving for age, Initial residual = 0.000247184, Final residual = 2.27404e-05, No Iterations 15

Time = 637

smoothSolver:  Solving for Ux, Initial residual = 4.47073e-07, Final residual = 3.89518e-08, No Iterations 5
smoothSolver:  Solving for Uy, Initial residual = 2.75509e-07, Final residual = 2.38983e-08, No Iterations 5
GAMG:  Solving for p, Initial residual = 1.05902e-06, Final residual = 6.12306e-08, No Iterations 2
time step continuity errors : sum local = 1.41307e-07, global = -1.26472e-09, cumulative = 0.0201579
smoothSolver:  Solving for omega, Initial residual = 3.70185e-08, Final residual = 9.69892e-09, No Iterations 2
smoothSolver:  Solving for k, Initial residual = 6.69417e-08, Final residual = 8.96137e-09, No Iterations 4
ExecutionTime = 8.11 s  ClockTime = 8 s

scalarTransport execute: age
smoothSolver:  Solving for age, Initial residual = 0.000246766, Final residual = 2.27024e-05, No Iterations 15

Time = 638

smoothSolver:  Solving for Ux, Initial residual = 4.41752e-07, Final residual = 3.84871e-08, No Iterations 5
smoothSolver:  Solving for Uy, Initial residual = 2.724e-07, Final residual = 2.36399e-08, No Iterations 5
GAMG:  Solving for p, Initial residual = 1.0475e-06, Final residual = 6.07128e-08, No Iterations 2
time step continuity errors : sum local = 1.40112e-07, global = -1.1707e-09, cumulative = 0.0201579
smoothSolver:  Solving for omega, Initial residual = 3.71997e-08, Final residual = 9.77575e-09, No Iterations 2
smoothSolver:  Solving for k, Initial residual = 6.60278e-08, Final residual = 8.82588e-09, No Iterations 4
ExecutionTime = 8.12 s  ClockTime = 8 s

scalarTransport execute: age
smoothSolver:  Solving for age, Initial residual = 0.000246349, Final residual = 2.26646e-05, No Iterations 15

Time = 639

smoothSolver:  Solving for Ux, Initial residual = 4.36532e-07, Final residual = 3.80329e-08, No Iterations 5
smoothSolver:  Solving for Uy, Initial residual = 2.69109e-07, Final residual = 2.3368e-08, No Iterations 5
GAMG:  Solving for p, Initial residual = 1.03589e-06, Final residual = 6.00857e-08, No Iterations 2
time step continuity errors : sum local = 1.38664e-07, global = -1.09306e-09, cumulative = 0.0201579
smoothSolver:  Solving for omega, Initial residual = 3.72217e-08, Final residual = 9.81403e-09, No Iterations 2
smoothSolver:  Solving for k, Initial residual = 6.5116e-08, Final residual = 8.69316e-09, No Iterations 4
ExecutionTime = 8.13 s  ClockTime = 8 s

scalarTransport execute: age
smoothSolver:  Solving for age, Initial residual = 0.000245934, Final residual = 2.26268e-05, No Iterations 15

Time = 640

smoothSolver:  Solving for Ux, Initial residual = 4.31421e-07, Final residual = 3.75851e-08, No Iterations 5
smoothSolver:  Solving for Uy, Initial residual = 2.65812e-07, Final residual = 2.30929e-08, No Iterations 5
GAMG:  Solving for p, Initial residual = 1.02385e-06, Final residual = 5.93779e-08, No Iterations 2
time step continuity errors : sum local = 1.37031e-07, global = -1.04433e-09, cumulative = 0.0201579
smoothSolver:  Solving for omega, Initial residual = 3.71412e-08, Final residual = 9.82549e-09, No Iterations 2
smoothSolver:  Solving for k, Initial residual = 6.42129e-08, Final residual = 8.56296e-09, No Iterations 4
ExecutionTime = 8.14 s  ClockTime = 8 s

scalarTransport execute: age
smoothSolver:  Solving for age, Initial residual = 0.000245521, Final residual = 2.25891e-05, No Iterations 15

Time = 641

smoothSolver:  Solving for Ux, Initial residual = 4.26335e-07, Final residual = 3.71405e-08, No Iterations 5
smoothSolver:  Solving for Uy, Initial residual = 2.62539e-07, Final residual = 2.28196e-08, No Iterations 5
GAMG:  Solving for p, Initial residual = 1.01177e-06, Final residual = 5.86339e-08, No Iterations 2
time step continuity errors : sum local = 1.35314e-07, global = -1.01904e-09, cumulative = 0.0201579
smoothSolver:  Solving for omega, Initial residual = 3.70015e-08, Final residual = 9.81735e-09, No Iterations 2
smoothSolver:  Solving for k, Initial residual = 6.33148e-08, Final residual = 8.4345e-09, No Iterations 4
ExecutionTime = 8.16 s  ClockTime = 8 s

scalarTransport execute: age
smoothSolver:  Solving for age, Initial residual = 0.000245108, Final residual = 2.25515e-05, No Iterations 15

Time = 642

smoothSolver:  Solving for Ux, Initial residual = 4.21284e-07, Final residual = 3.66979e-08, No Iterations 5
smoothSolver:  Solving for Uy, Initial residual = 2.59301e-07, Final residual = 2.25482e-08, No Iterations 5
GAMG:  Solving for p, Initial residual = 9.99839e-07, Final residual = 5.78882e-08, No Iterations 2
time step continuity errors : sum local = 1.33593e-07, global = -1.01917e-09, cumulative = 0.0201579
smoothSolver:  Solving for omega, Initial residual = 3.6815e-08, Final residual = 9.79417e-09, No Iterations 2
smoothSolver:  Solving for k, Initial residual = 6.24229e-08, Final residual = 8.30796e-09, No Iterations 4
ExecutionTime = 8.17 s  ClockTime = 8 s


SIMPLE solution converged in 642 iterations

scalarTransport execute: age
smoothSolver:  Solving for age, Initial residual = 0.000244696, Final residual = 2.25139e-05, No Iterations 15

End

