/*---------------------------------------------------------------------------*\
| =========                 |                                                 |
| \\      /  F ield         | OpenFOAM: The Open Source CFD Toolbox           |
|  \\    /   O peration     | Version:  v2012                                 |
|   \\  /    A nd           | Website:  www.openfoam.com                      |
|    \\/     M anipulation  |                                                 |
\*---------------------------------------------------------------------------*/
Build  : _7bdb509494-20201222 OPENFOAM=2012
Arch   : "LSB;label=32;scalar=64"
Exec   : simpleFoam
Date   : Feb 23 2023
Time   : 01:57:13
Host   : johnsDesktop
PID    : 18084
I/O    : uncollated
Case   : /home/john/of_runs/cases/0_52_4-00520_9
nProcs : 1
trapFpe: Floating point exception trapping enabled (FOAM_SIGFPE).
fileModificationChecking : Monitoring run-time modified files using timeStampMaster (fileModificationSkew 5, maxFileModificationPolls 20)
allowSystemOperations : Allowing user-supplied system call operations

// * * * * * * * * * * * * * * * * * * * * * * * * * * * * * * * * * * * * * //
Create time

Create mesh for time = 0


SIMPLE: convergence criteria
    field p	 tolerance 1e-06
    field U	 tolerance 1e-06
    field "(k|epsilon|omega|f|v2|age)"	 tolerance 1e-05

Reading field p

Reading field U

Reading/calculating face flux field phi

Selecting incompressible transport model Newtonian
Selecting turbulence model type RAS
Selecting RAS turbulence model kOmegaSST
Selecting patchDistMethod meshWave
RAS
{
    RASModel        kOmegaSST;
    turbulence      on;
    printCoeffs     on;
    alphaK1         0.85;
    alphaK2         1;
    alphaOmega1     0.5;
    alphaOmega2     0.856;
    gamma1          0.555556;
    gamma2          0.44;
    beta1           0.075;
    beta2           0.0828;
    betaStar        0.09;
    a1              0.31;
    b1              1;
    c1              10;
    F3              false;
    decayControl    false;
    kInf            0;
    omegaInf        0;
}

No MRF models present

No finite volume options present

Starting time loop

Selecting finite volume options type scalarSemiImplicitSource
    Source: unitySource
    - selecting all cells
    - selected 6057 cell(s) with volume 0.03174
Time = 1

smoothSolver:  Solving for Ux, Initial residual = 0, Final residual = 0, No Iterations 0
smoothSolver:  Solving for Uy, Initial residual = 1, Final residual = 0.0868274, No Iterations 2
GAMG:  Solving for p, Initial residual = 1, Final residual = 0.0542942, No Iterations 16
time step continuity errors : sum local = 0.00342118, global = -0.000443634, cumulative = -0.000443634
smoothSolver:  Solving for omega, Initial residual = 0.27739, Final residual = 0.011759, No Iterations 3
smoothSolver:  Solving for k, Initial residual = 1, Final residual = 0.0784735, No Iterations 3
ExecutionTime = 0.05 s  ClockTime = 1 s

scalarTransport execute: age
smoothSolver:  Solving for age, Initial residual = 1, Final residual = 0.0898074, No Iterations 5

Time = 2

smoothSolver:  Solving for Ux, Initial residual = 0.53533, Final residual = 0.0455404, No Iterations 6
smoothSolver:  Solving for Uy, Initial residual = 0.275369, Final residual = 0.0201625, No Iterations 6
GAMG:  Solving for p, Initial residual = 0.0500867, Final residual = 0.00436365, No Iterations 4
time step continuity errors : sum local = 0.0520703, global = 0.00444431, cumulative = 0.00400068
smoothSolver:  Solving for omega, Initial residual = 0.253773, Final residual = 0.0241806, No Iterations 3
smoothSolver:  Solving for k, Initial residual = 0.601673, Final residual = 0.0562443, No Iterations 4
ExecutionTime = 0.08 s  ClockTime = 1 s

scalarTransport execute: age
smoothSolver:  Solving for age, Initial residual = 0.581576, Final residual = 0.0575489, No Iterations 5

Time = 3

smoothSolver:  Solving for Ux, Initial residual = 0.235008, Final residual = 0.0178274, No Iterations 6
smoothSolver:  Solving for Uy, Initial residual = 0.0998487, Final residual = 0.00952049, No Iterations 5
GAMG:  Solving for p, Initial residual = 0.0571771, Final residual = 0.00447266, No Iterations 7
time step continuity errors : sum local = 0.0259364, global = 0.00213717, cumulative = 0.00613784
smoothSolver:  Solving for omega, Initial residual = 0.241428, Final residual = 0.0232086, No Iterations 4
smoothSolver:  Solving for k, Initial residual = 0.507369, Final residual = 0.0380591, No Iterations 5
ExecutionTime = 0.09 s  ClockTime = 1 s

scalarTransport execute: age
smoothSolver:  Solving for age, Initial residual = 0.410282, Final residual = 0.0393439, No Iterations 9

Time = 4

smoothSolver:  Solving for Ux, Initial residual = 0.113428, Final residual = 0.00892792, No Iterations 4
smoothSolver:  Solving for Uy, Initial residual = 0.0601226, Final residual = 0.00449928, No Iterations 5
GAMG:  Solving for p, Initial residual = 0.0951897, Final residual = 0.00627532, No Iterations 3
time step continuity errors : sum local = 0.0169829, global = 0.00125214, cumulative = 0.00738998
smoothSolver:  Solving for omega, Initial residual = 0.139659, Final residual = 0.00959487, No Iterations 5
smoothSolver:  Solving for k, Initial residual = 0.436653, Final residual = 0.0370896, No Iterations 5
ExecutionTime = 0.1 s  ClockTime = 1 s

scalarTransport execute: age
smoothSolver:  Solving for age, Initial residual = 0.27848, Final residual = 0.022615, No Iterations 3

Time = 5

smoothSolver:  Solving for Ux, Initial residual = 0.079419, Final residual = 0.00746203, No Iterations 5
smoothSolver:  Solving for Uy, Initial residual = 0.0332692, Final residual = 0.00245164, No Iterations 5
GAMG:  Solving for p, Initial residual = 0.0850248, Final residual = 0.00425765, No Iterations 2
time step continuity errors : sum local = 0.00987367, global = 0.000933023, cumulative = 0.008323
smoothSolver:  Solving for omega, Initial residual = 0.0970136, Final residual = 0.00736094, No Iterations 5
smoothSolver:  Solving for k, Initial residual = 0.342063, Final residual = 0.0314547, No Iterations 5
ExecutionTime = 0.12 s  ClockTime = 1 s

scalarTransport execute: age
smoothSolver:  Solving for age, Initial residual = 0.229317, Final residual = 0.0194762, No Iterations 3

Time = 6

smoothSolver:  Solving for Ux, Initial residual = 0.0610644, Final residual = 0.00459672, No Iterations 6
smoothSolver:  Solving for Uy, Initial residual = 0.026402, Final residual = 0.00220112, No Iterations 5
GAMG:  Solving for p, Initial residual = 0.0676247, Final residual = 0.0047251, No Iterations 2
time step continuity errors : sum local = 0.0108789, global = -1.09638e-05, cumulative = 0.00831204
smoothSolver:  Solving for omega, Initial residual = 0.075481, Final residual = 0.00615756, No Iterations 5
smoothSolver:  Solving for k, Initial residual = 0.273509, Final residual = 0.0267306, No Iterations 5
ExecutionTime = 0.13 s  ClockTime = 1 s

scalarTransport execute: age
smoothSolver:  Solving for age, Initial residual = 0.18402, Final residual = 0.0175974, No Iterations 3

Time = 7

smoothSolver:  Solving for Ux, Initial residual = 0.0526719, Final residual = 0.00402973, No Iterations 6
smoothSolver:  Solving for Uy, Initial residual = 0.0220429, Final residual = 0.00196706, No Iterations 5
GAMG:  Solving for p, Initial residual = 0.0545013, Final residual = 0.00416084, No Iterations 3
time step continuity errors : sum local = 0.00969142, global = -0.000392744, cumulative = 0.0079193
smoothSolver:  Solving for omega, Initial residual = 0.0568211, Final residual = 0.00497182, No Iterations 5
smoothSolver:  Solving for k, Initial residual = 0.226603, Final residual = 0.0146602, No Iterations 6
ExecutionTime = 0.14 s  ClockTime = 1 s

scalarTransport execute: age
smoothSolver:  Solving for age, Initial residual = 0.149506, Final residual = 0.0132677, No Iterations 3

Time = 8

smoothSolver:  Solving for Ux, Initial residual = 0.0351091, Final residual = 0.00312483, No Iterations 5
smoothSolver:  Solving for Uy, Initial residual = 0.0202496, Final residual = 0.00191291, No Iterations 5
GAMG:  Solving for p, Initial residual = 0.0419816, Final residual = 0.00384608, No Iterations 2
time step continuity errors : sum local = 0.0100409, global = -0.000515579, cumulative = 0.00740372
smoothSolver:  Solving for omega, Initial residual = 0.0462049, Final residual = 0.00417507, No Iterations 5
smoothSolver:  Solving for k, Initial residual = 0.193227, Final residual = 0.0129671, No Iterations 6
ExecutionTime = 0.15 s  ClockTime = 1 s

scalarTransport execute: age
smoothSolver:  Solving for age, Initial residual = 0.129407, Final residual = 0.0103321, No Iterations 4

Time = 9

smoothSolver:  Solving for Ux, Initial residual = 0.0288869, Final residual = 0.00280528, No Iterations 5
smoothSolver:  Solving for Uy, Initial residual = 0.0191703, Final residual = 0.00178946, No Iterations 5
GAMG:  Solving for p, Initial residual = 0.0346096, Final residual = 0.00270862, No Iterations 2
time step continuity errors : sum local = 0.00750676, global = -0.00070722, cumulative = 0.0066965
smoothSolver:  Solving for omega, Initial residual = 0.0379892, Final residual = 0.00354365, No Iterations 5
smoothSolver:  Solving for k, Initial residual = 0.167815, Final residual = 0.011599, No Iterations 6
ExecutionTime = 0.16 s  ClockTime = 1 s

scalarTransport execute: age
smoothSolver:  Solving for age, Initial residual = 0.109059, Final residual = 0.0108653, No Iterations 3

Time = 10

smoothSolver:  Solving for Ux, Initial residual = 0.027215, Final residual = 0.00179996, No Iterations 6
smoothSolver:  Solving for Uy, Initial residual = 0.0172116, Final residual = 0.00162397, No Iterations 5
GAMG:  Solving for p, Initial residual = 0.028635, Final residual = 0.00138738, No Iterations 2
time step continuity errors : sum local = 0.00398939, global = -0.000514345, cumulative = 0.00618215
smoothSolver:  Solving for omega, Initial residual = 0.0318741, Final residual = 0.00304667, No Iterations 5
smoothSolver:  Solving for k, Initial residual = 0.147893, Final residual = 0.0104823, No Iterations 6
ExecutionTime = 0.17 s  ClockTime = 1 s

scalarTransport execute: age
smoothSolver:  Solving for age, Initial residual = 0.0919652, Final residual = 0.00813991, No Iterations 3

Time = 11

smoothSolver:  Solving for Ux, Initial residual = 0.0257159, Final residual = 0.00175607, No Iterations 6
smoothSolver:  Solving for Uy, Initial residual = 0.0161317, Final residual = 0.0015941, No Iterations 5
GAMG:  Solving for p, Initial residual = 0.0248533, Final residual = 0.000925801, No Iterations 2
time step continuity errors : sum local = 0.00271876, global = -0.000390831, cumulative = 0.00579132
smoothSolver:  Solving for omega, Initial residual = 0.0267673, Final residual = 0.00262192, No Iterations 5
smoothSolver:  Solving for k, Initial residual = 0.132121, Final residual = 0.00955048, No Iterations 6
ExecutionTime = 0.19 s  ClockTime = 1 s

scalarTransport execute: age
smoothSolver:  Solving for age, Initial residual = 0.0790991, Final residual = 0.00697313, No Iterations 3

Time = 12

smoothSolver:  Solving for Ux, Initial residual = 0.0244828, Final residual = 0.00169307, No Iterations 6
smoothSolver:  Solving for Uy, Initial residual = 0.0157489, Final residual = 0.00107299, No Iterations 6
GAMG:  Solving for p, Initial residual = 0.022106, Final residual = 0.000898375, No Iterations 2
time step continuity errors : sum local = 0.00266106, global = -0.000283908, cumulative = 0.00550741
smoothSolver:  Solving for omega, Initial residual = 0.0229476, Final residual = 0.00228142, No Iterations 5
smoothSolver:  Solving for k, Initial residual = 0.119189, Final residual = 0.00876023, No Iterations 6
ExecutionTime = 0.2 s  ClockTime = 1 s

scalarTransport execute: age
smoothSolver:  Solving for age, Initial residual = 0.0686894, Final residual = 0.00612986, No Iterations 3

Time = 13

smoothSolver:  Solving for Ux, Initial residual = 0.0235816, Final residual = 0.00165294, No Iterations 6
smoothSolver:  Solving for Uy, Initial residual = 0.0152436, Final residual = 0.00106698, No Iterations 6
GAMG:  Solving for p, Initial residual = 0.0205236, Final residual = 0.000921678, No Iterations 2
time step continuity errors : sum local = 0.0027493, global = -0.000172882, cumulative = 0.00533453
smoothSolver:  Solving for omega, Initial residual = 0.0198204, Final residual = 0.00127742, No Iterations 6
smoothSolver:  Solving for k, Initial residual = 0.108152, Final residual = 0.00806439, No Iterations 6
ExecutionTime = 0.21 s  ClockTime = 1 s

scalarTransport execute: age
smoothSolver:  Solving for age, Initial residual = 0.0610928, Final residual = 0.00571118, No Iterations 3

Time = 14

smoothSolver:  Solving for Ux, Initial residual = 0.0227846, Final residual = 0.00161186, No Iterations 6
smoothSolver:  Solving for Uy, Initial residual = 0.0149679, Final residual = 0.00106727, No Iterations 6
GAMG:  Solving for p, Initial residual = 0.0193141, Final residual = 0.000909851, No Iterations 2
time step continuity errors : sum local = 0.0027238, global = -7.10454e-05, cumulative = 0.00526349
smoothSolver:  Solving for omega, Initial residual = 0.0171182, Final residual = 0.00111855, No Iterations 6
smoothSolver:  Solving for k, Initial residual = 0.0987045, Final residual = 0.00745406, No Iterations 6
ExecutionTime = 0.22 s  ClockTime = 1 s

scalarTransport execute: age
smoothSolver:  Solving for age, Initial residual = 0.0552897, Final residual = 0.00534618, No Iterations 3

Time = 15

smoothSolver:  Solving for Ux, Initial residual = 0.0220513, Final residual = 0.0015708, No Iterations 6
smoothSolver:  Solving for Uy, Initial residual = 0.0147727, Final residual = 0.00106774, No Iterations 6
GAMG:  Solving for p, Initial residual = 0.0184487, Final residual = 0.000883239, No Iterations 2
time step continuity errors : sum local = 0.00264724, global = 3.2516e-05, cumulative = 0.005296
smoothSolver:  Solving for omega, Initial residual = 0.0149226, Final residual = 0.00098612, No Iterations 6
smoothSolver:  Solving for k, Initial residual = 0.0906887, Final residual = 0.00692239, No Iterations 6
ExecutionTime = 0.23 s  ClockTime = 1 s

scalarTransport execute: age
smoothSolver:  Solving for age, Initial residual = 0.0504709, Final residual = 0.00482435, No Iterations 3

Time = 16

smoothSolver:  Solving for Ux, Initial residual = 0.0213392, Final residual = 0.00152786, No Iterations 6
smoothSolver:  Solving for Uy, Initial residual = 0.0146802, Final residual = 0.00107014, No Iterations 6
GAMG:  Solving for p, Initial residual = 0.0176133, Final residual = 0.000853894, No Iterations 2
time step continuity errors : sum local = 0.00255534, global = 0.000118614, cumulative = 0.00541462
smoothSolver:  Solving for omega, Initial residual = 0.0131404, Final residual = 0.000875048, No Iterations 6
smoothSolver:  Solving for k, Initial residual = 0.0837954, Final residual = 0.00645468, No Iterations 6
ExecutionTime = 0.24 s  ClockTime = 1 s

scalarTransport execute: age
smoothSolver:  Solving for age, Initial residual = 0.0460576, Final residual = 0.00360764, No Iterations 4

Time = 17

smoothSolver:  Solving for Ux, Initial residual = 0.0206212, Final residual = 0.00148427, No Iterations 6
smoothSolver:  Solving for Uy, Initial residual = 0.0146038, Final residual = 0.00107045, No Iterations 6
GAMG:  Solving for p, Initial residual = 0.0169228, Final residual = 0.000826182, No Iterations 2
time step continuity errors : sum local = 0.00246438, global = 0.00018578, cumulative = 0.0056004
smoothSolver:  Solving for omega, Initial residual = 0.0116737, Final residual = 0.000781351, No Iterations 6
smoothSolver:  Solving for k, Initial residual = 0.0778191, Final residual = 0.0060411, No Iterations 6
ExecutionTime = 0.25 s  ClockTime = 1 s

scalarTransport execute: age
smoothSolver:  Solving for age, Initial residual = 0.0419202, Final residual = 0.00349199, No Iterations 4

Time = 18

smoothSolver:  Solving for Ux, Initial residual = 0.0199386, Final residual = 0.00144064, No Iterations 6
smoothSolver:  Solving for Uy, Initial residual = 0.0145309, Final residual = 0.00106849, No Iterations 6
GAMG:  Solving for p, Initial residual = 0.0163484, Final residual = 0.000808227, No Iterations 2
time step continuity errors : sum local = 0.00239872, global = 0.000222711, cumulative = 0.00582311
smoothSolver:  Solving for omega, Initial residual = 0.0104434, Final residual = 0.000701596, No Iterations 6
smoothSolver:  Solving for k, Initial residual = 0.0725867, Final residual = 0.00567291, No Iterations 6
ExecutionTime = 0.27 s  ClockTime = 1 s

scalarTransport execute: age
smoothSolver:  Solving for age, Initial residual = 0.038535, Final residual = 0.00350971, No Iterations 4

Time = 19

smoothSolver:  Solving for Ux, Initial residual = 0.0193016, Final residual = 0.00139906, No Iterations 6
smoothSolver:  Solving for Uy, Initial residual = 0.0144341, Final residual = 0.00106528, No Iterations 6
GAMG:  Solving for p, Initial residual = 0.0158468, Final residual = 0.000794386, No Iterations 2
time step continuity errors : sum local = 0.00234109, global = 0.000238016, cumulative = 0.00606112
smoothSolver:  Solving for omega, Initial residual = 0.00940189, Final residual = 0.000633255, No Iterations 6
smoothSolver:  Solving for k, Initial residual = 0.067965, Final residual = 0.00534252, No Iterations 6
ExecutionTime = 0.28 s  ClockTime = 1 s

scalarTransport execute: age
smoothSolver:  Solving for age, Initial residual = 0.0350583, Final residual = 0.00332659, No Iterations 4

Time = 20

smoothSolver:  Solving for Ux, Initial residual = 0.0187151, Final residual = 0.00136157, No Iterations 6
smoothSolver:  Solving for Uy, Initial residual = 0.0143212, Final residual = 0.00106191, No Iterations 6
GAMG:  Solving for p, Initial residual = 0.0154308, Final residual = 0.000790236, No Iterations 2
time step continuity errors : sum local = 0.00230933, global = 0.000244276, cumulative = 0.0063054
smoothSolver:  Solving for omega, Initial residual = 0.00850939, Final residual = 0.000574255, No Iterations 6
smoothSolver:  Solving for k, Initial residual = 0.0638554, Final residual = 0.00504456, No Iterations 6
ExecutionTime = 0.29 s  ClockTime = 1 s

scalarTransport execute: age
smoothSolver:  Solving for age, Initial residual = 0.0315193, Final residual = 0.00313522, No Iterations 4

Time = 21

smoothSolver:  Solving for Ux, Initial residual = 0.0182164, Final residual = 0.0013291, No Iterations 6
smoothSolver:  Solving for Uy, Initial residual = 0.0141768, Final residual = 0.00105793, No Iterations 6
GAMG:  Solving for p, Initial residual = 0.0149691, Final residual = 0.000794505, No Iterations 2
time step continuity errors : sum local = 0.00229962, global = 0.000241022, cumulative = 0.00654642
smoothSolver:  Solving for omega, Initial residual = 0.00773714, Final residual = 0.000522892, No Iterations 6
smoothSolver:  Solving for k, Initial residual = 0.0601821, Final residual = 0.00477478, No Iterations 6
ExecutionTime = 0.3 s  ClockTime = 1 s

scalarTransport execute: age
smoothSolver:  Solving for age, Initial residual = 0.0281882, Final residual = 0.00244413, No Iterations 5

Time = 22

smoothSolver:  Solving for Ux, Initial residual = 0.0177969, Final residual = 0.00130241, No Iterations 6
smoothSolver:  Solving for Uy, Initial residual = 0.0140208, Final residual = 0.00105135, No Iterations 6
GAMG:  Solving for p, Initial residual = 0.0144327, Final residual = 0.000802357, No Iterations 2
time step continuity errors : sum local = 0.00230036, global = 0.000231737, cumulative = 0.00677816
smoothSolver:  Solving for omega, Initial residual = 0.00706624, Final residual = 0.00047794, No Iterations 6
smoothSolver:  Solving for k, Initial residual = 0.0568716, Final residual = 0.00452886, No Iterations 6
ExecutionTime = 0.31 s  ClockTime = 1 s

scalarTransport execute: age
smoothSolver:  Solving for age, Initial residual = 0.0254844, Final residual = 0.00225273, No Iterations 5

Time = 23

smoothSolver:  Solving for Ux, Initial residual = 0.0174506, Final residual = 0.0012803, No Iterations 6
smoothSolver:  Solving for Uy, Initial residual = 0.0138486, Final residual = 0.00104266, No Iterations 6
GAMG:  Solving for p, Initial residual = 0.0138429, Final residual = 0.000810083, No Iterations 2
time step continuity errors : sum local = 0.00230317, global = 0.000218221, cumulative = 0.00699638
smoothSolver:  Solving for omega, Initial residual = 0.00647864, Final residual = 0.000438272, No Iterations 6
smoothSolver:  Solving for k, Initial residual = 0.0538705, Final residual = 0.00430387, No Iterations 6
ExecutionTime = 0.32 s  ClockTime = 1 s

scalarTransport execute: age
smoothSolver:  Solving for age, Initial residual = 0.0235579, Final residual = 0.0021395, No Iterations 5

Time = 24

smoothSolver:  Solving for Ux, Initial residual = 0.0171265, Final residual = 0.00126159, No Iterations 6
smoothSolver:  Solving for Uy, Initial residual = 0.0136504, Final residual = 0.00103163, No Iterations 6
GAMG:  Solving for p, Initial residual = 0.0132166, Final residual = 0.000815178, No Iterations 2
time step continuity errors : sum local = 0.00229994, global = 0.000202665, cumulative = 0.00719904
smoothSolver:  Solving for omega, Initial residual = 0.00596069, Final residual = 0.00040311, No Iterations 6
smoothSolver:  Solving for k, Initial residual = 0.0511372, Final residual = 0.0040971, No Iterations 6
ExecutionTime = 0.33 s  ClockTime = 1 s

scalarTransport execute: age
smoothSolver:  Solving for age, Initial residual = 0.0223343, Final residual = 0.00207182, No Iterations 5

Time = 25

smoothSolver:  Solving for Ux, Initial residual = 0.0168414, Final residual = 0.00124615, No Iterations 6
smoothSolver:  Solving for Uy, Initial residual = 0.0134389, Final residual = 0.00101893, No Iterations 6
GAMG:  Solving for p, Initial residual = 0.0126401, Final residual = 0.000815086, No Iterations 2
time step continuity errors : sum local = 0.00228496, global = 0.000187202, cumulative = 0.00738625
smoothSolver:  Solving for omega, Initial residual = 0.00550262, Final residual = 0.000371886, No Iterations 6
smoothSolver:  Solving for k, Initial residual = 0.04864, Final residual = 0.00390655, No Iterations 6
ExecutionTime = 0.35 s  ClockTime = 1 s

scalarTransport execute: age
smoothSolver:  Solving for age, Initial residual = 0.0211619, Final residual = 0.00207851, No Iterations 5

Time = 26

smoothSolver:  Solving for Ux, Initial residual = 0.0165863, Final residual = 0.00123286, No Iterations 6
smoothSolver:  Solving for Uy, Initial residual = 0.0132591, Final residual = 0.00100506, No Iterations 6
GAMG:  Solving for p, Initial residual = 0.0122058, Final residual = 0.000809568, No Iterations 2
time step continuity errors : sum local = 0.00225563, global = 0.000172995, cumulative = 0.00755924
smoothSolver:  Solving for omega, Initial residual = 0.00509632, Final residual = 0.000344245, No Iterations 6
smoothSolver:  Solving for k, Initial residual = 0.0463382, Final residual = 0.00372965, No Iterations 6
ExecutionTime = 0.36 s  ClockTime = 1 s

scalarTransport execute: age
smoothSolver:  Solving for age, Initial residual = 0.0199945, Final residual = 0.00174153, No Iterations 6

Time = 27

smoothSolver:  Solving for Ux, Initial residual = 0.0163572, Final residual = 0.0012231, No Iterations 6
smoothSolver:  Solving for Uy, Initial residual = 0.0130879, Final residual = 0.000989978, No Iterations 6
GAMG:  Solving for p, Initial residual = 0.0121108, Final residual = 0.000803532, No Iterations 2
time step continuity errors : sum local = 0.00222695, global = 0.000161553, cumulative = 0.00772079
smoothSolver:  Solving for omega, Initial residual = 0.00473831, Final residual = 0.000319763, No Iterations 6
smoothSolver:  Solving for k, Initial residual = 0.0442125, Final residual = 0.00356508, No Iterations 6
ExecutionTime = 0.37 s  ClockTime = 1 s

scalarTransport execute: age
smoothSolver:  Solving for age, Initial residual = 0.0188163, Final residual = 0.00180002, No Iterations 6

Time = 28

smoothSolver:  Solving for Ux, Initial residual = 0.0161568, Final residual = 0.00121565, No Iterations 6
smoothSolver:  Solving for Uy, Initial residual = 0.012926, Final residual = 0.000974465, No Iterations 6
GAMG:  Solving for p, Initial residual = 0.0123091, Final residual = 0.000802346, No Iterations 2
time step continuity errors : sum local = 0.00221439, global = 0.000153754, cumulative = 0.00787455
smoothSolver:  Solving for omega, Initial residual = 0.00441906, Final residual = 0.000297782, No Iterations 6
smoothSolver:  Solving for k, Initial residual = 0.0422414, Final residual = 0.00341149, No Iterations 6
ExecutionTime = 0.38 s  ClockTime = 1 s

scalarTransport execute: age
smoothSolver:  Solving for age, Initial residual = 0.0177293, Final residual = 0.00154143, No Iterations 7

Time = 29

smoothSolver:  Solving for Ux, Initial residual = 0.0160134, Final residual = 0.00121076, No Iterations 6
smoothSolver:  Solving for Uy, Initial residual = 0.0127578, Final residual = 0.000957567, No Iterations 6
GAMG:  Solving for p, Initial residual = 0.0126005, Final residual = 0.000817413, No Iterations 2
time step continuity errors : sum local = 0.00224742, global = 0.00014922, cumulative = 0.00802377
smoothSolver:  Solving for omega, Initial residual = 0.00413651, Final residual = 0.000277858, No Iterations 6
smoothSolver:  Solving for k, Initial residual = 0.0404006, Final residual = 0.00326724, No Iterations 6
ExecutionTime = 0.39 s  ClockTime = 1 s

scalarTransport execute: age
smoothSolver:  Solving for age, Initial residual = 0.0167996, Final residual = 0.00162035, No Iterations 7

Time = 30

smoothSolver:  Solving for Ux, Initial residual = 0.0159263, Final residual = 0.00120705, No Iterations 6
smoothSolver:  Solving for Uy, Initial residual = 0.0125637, Final residual = 0.000939799, No Iterations 6
GAMG:  Solving for p, Initial residual = 0.0127226, Final residual = 0.000862344, No Iterations 2
time step continuity errors : sum local = 0.00235383, global = 0.000147377, cumulative = 0.00817115
smoothSolver:  Solving for omega, Initial residual = 0.00388172, Final residual = 0.000259715, No Iterations 6
smoothSolver:  Solving for k, Initial residual = 0.0386777, Final residual = 0.00313151, No Iterations 6
ExecutionTime = 0.4 s  ClockTime = 1 s

scalarTransport execute: age
smoothSolver:  Solving for age, Initial residual = 0.0160992, Final residual = 0.00144591, No Iterations 8

Time = 31

smoothSolver:  Solving for Ux, Initial residual = 0.0158534, Final residual = 0.00120295, No Iterations 6
smoothSolver:  Solving for Uy, Initial residual = 0.0123339, Final residual = 0.000920416, No Iterations 6
GAMG:  Solving for p, Initial residual = 0.0126922, Final residual = 0.000900667, No Iterations 2
time step continuity errors : sum local = 0.00244476, global = 0.000147404, cumulative = 0.00831855
smoothSolver:  Solving for omega, Initial residual = 0.00364974, Final residual = 0.000243164, No Iterations 6
smoothSolver:  Solving for k, Initial residual = 0.037063, Final residual = 0.00300373, No Iterations 6
ExecutionTime = 0.41 s  ClockTime = 1 s

scalarTransport execute: age
smoothSolver:  Solving for age, Initial residual = 0.0157186, Final residual = 0.00150282, No Iterations 8

Time = 32

smoothSolver:  Solving for Ux, Initial residual = 0.0157758, Final residual = 0.00119799, No Iterations 6
smoothSolver:  Solving for Uy, Initial residual = 0.0120544, Final residual = 0.000899247, No Iterations 6
GAMG:  Solving for p, Initial residual = 0.0123783, Final residual = 0.000925859, No Iterations 2
time step continuity errors : sum local = 0.00249994, global = 0.00014585, cumulative = 0.0084644
smoothSolver:  Solving for omega, Initial residual = 0.00343773, Final residual = 0.000227968, No Iterations 6
smoothSolver:  Solving for k, Initial residual = 0.0355431, Final residual = 0.00288307, No Iterations 6
ExecutionTime = 0.43 s  ClockTime = 1 s

scalarTransport execute: age
smoothSolver:  Solving for age, Initial residual = 0.0155072, Final residual = 0.00135439, No Iterations 9

Time = 33

smoothSolver:  Solving for Ux, Initial residual = 0.015694, Final residual = 0.00119127, No Iterations 6
smoothSolver:  Solving for Uy, Initial residual = 0.0117417, Final residual = 0.000876753, No Iterations 6
GAMG:  Solving for p, Initial residual = 0.0118637, Final residual = 0.000941122, No Iterations 2
time step continuity errors : sum local = 0.00252871, global = 0.000140493, cumulative = 0.00860489
smoothSolver:  Solving for omega, Initial residual = 0.0032449, Final residual = 0.000214004, No Iterations 6
smoothSolver:  Solving for k, Initial residual = 0.0341145, Final residual = 0.00276938, No Iterations 6
ExecutionTime = 0.44 s  ClockTime = 1 s

scalarTransport execute: age
smoothSolver:  Solving for age, Initial residual = 0.015509, Final residual = 0.00142913, No Iterations 9

Time = 34

smoothSolver:  Solving for Ux, Initial residual = 0.0155783, Final residual = 0.00118282, No Iterations 6
smoothSolver:  Solving for Uy, Initial residual = 0.01141, Final residual = 0.000854164, No Iterations 6
GAMG:  Solving for p, Initial residual = 0.0113174, Final residual = 0.000954591, No Iterations 2
time step continuity errors : sum local = 0.002554, global = 0.000131192, cumulative = 0.00873608
smoothSolver:  Solving for omega, Initial residual = 0.00306741, Final residual = 0.000201131, No Iterations 6
smoothSolver:  Solving for k, Initial residual = 0.032769, Final residual = 0.00266245, No Iterations 6
ExecutionTime = 0.45 s  ClockTime = 1 s

scalarTransport execute: age
smoothSolver:  Solving for age, Initial residual = 0.0157037, Final residual = 0.00150922, No Iterations 9

Time = 35

smoothSolver:  Solving for Ux, Initial residual = 0.015445, Final residual = 0.00117227, No Iterations 6
smoothSolver:  Solving for Uy, Initial residual = 0.011072, Final residual = 0.000832805, No Iterations 6
GAMG:  Solving for p, Initial residual = 0.0108837, Final residual = 0.000970004, No Iterations 2
time step continuity errors : sum local = 0.00258822, global = 0.000120284, cumulative = 0.00885637
smoothSolver:  Solving for omega, Initial residual = 0.00290113, Final residual = 0.000189225, No Iterations 6
smoothSolver:  Solving for k, Initial residual = 0.031503, Final residual = 0.00256212, No Iterations 6
ExecutionTime = 0.46 s  ClockTime = 1 s

scalarTransport execute: age
smoothSolver:  Solving for age, Initial residual = 0.0159705, Final residual = 0.00137848, No Iterations 10

Time = 36

smoothSolver:  Solving for Ux, Initial residual = 0.0153047, Final residual = 0.00116183, No Iterations 6
smoothSolver:  Solving for Uy, Initial residual = 0.0107791, Final residual = 0.000813556, No Iterations 6
GAMG:  Solving for p, Initial residual = 0.0104655, Final residual = 0.0010033, No Iterations 2
time step continuity errors : sum local = 0.00266215, global = 0.000110907, cumulative = 0.00896728
smoothSolver:  Solving for omega, Initial residual = 0.00274848, Final residual = 0.000178195, No Iterations 6
smoothSolver:  Solving for k, Initial residual = 0.0303122, Final residual = 0.00246798, No Iterations 6
ExecutionTime = 0.47 s  ClockTime = 1 s

scalarTransport execute: age
smoothSolver:  Solving for age, Initial residual = 0.0163699, Final residual = 0.00145579, No Iterations 10

Time = 37

smoothSolver:  Solving for Ux, Initial residual = 0.0151802, Final residual = 0.00115035, No Iterations 6
smoothSolver:  Solving for Uy, Initial residual = 0.0105152, Final residual = 0.000795522, No Iterations 6
GAMG:  Solving for p, Initial residual = 0.0102091, Final residual = 0.000858796, No Iterations 3
time step continuity errors : sum local = 0.00226602, global = 6.08407e-05, cumulative = 0.00902812
smoothSolver:  Solving for omega, Initial residual = 0.00263053, Final residual = 0.000260289, No Iterations 5
smoothSolver:  Solving for k, Initial residual = 0.0292154, Final residual = 0.00238173, No Iterations 6
ExecutionTime = 0.48 s  ClockTime = 1 s

scalarTransport execute: age
smoothSolver:  Solving for age, Initial residual = 0.0168916, Final residual = 0.00155776, No Iterations 10

Time = 38

smoothSolver:  Solving for Ux, Initial residual = 0.0152879, Final residual = 0.00115207, No Iterations 6
smoothSolver:  Solving for Uy, Initial residual = 0.0103958, Final residual = 0.000784956, No Iterations 6
GAMG:  Solving for p, Initial residual = 0.0101224, Final residual = 0.000846003, No Iterations 2
time step continuity errors : sum local = 0.00220937, global = 7.4132e-05, cumulative = 0.00910225
smoothSolver:  Solving for omega, Initial residual = 0.00248737, Final residual = 0.000246605, No Iterations 5
smoothSolver:  Solving for k, Initial residual = 0.0282106, Final residual = 0.00230133, No Iterations 6
ExecutionTime = 0.5 s  ClockTime = 1 s

scalarTransport execute: age
smoothSolver:  Solving for age, Initial residual = 0.0175185, Final residual = 0.00171472, No Iterations 10

Time = 39

smoothSolver:  Solving for Ux, Initial residual = 0.0150214, Final residual = 0.00113163, No Iterations 6
smoothSolver:  Solving for Uy, Initial residual = 0.0100453, Final residual = 0.000765908, No Iterations 6
GAMG:  Solving for p, Initial residual = 0.00999984, Final residual = 0.000651394, No Iterations 3
time step continuity errors : sum local = 0.00169674, global = 5.23593e-05, cumulative = 0.00915461
smoothSolver:  Solving for omega, Initial residual = 0.00237578, Final residual = 0.000233768, No Iterations 5
smoothSolver:  Solving for k, Initial residual = 0.0272594, Final residual = 0.00222562, No Iterations 6
ExecutionTime = 0.51 s  ClockTime = 1 s

scalarTransport execute: age
smoothSolver:  Solving for age, Initial residual = 0.018075, Final residual = 0.00166097, No Iterations 11

Time = 40

smoothSolver:  Solving for Ux, Initial residual = 0.0148615, Final residual = 0.0011102, No Iterations 6
smoothSolver:  Solving for Uy, Initial residual = 0.00983046, Final residual = 0.000751426, No Iterations 6
GAMG:  Solving for p, Initial residual = 0.00953769, Final residual = 0.000931769, No Iterations 2
time step continuity errors : sum local = 0.0024262, global = 6.32753e-05, cumulative = 0.00921788
smoothSolver:  Solving for omega, Initial residual = 0.00226708, Final residual = 0.00022172, No Iterations 5
smoothSolver:  Solving for k, Initial residual = 0.0263711, Final residual = 0.00215377, No Iterations 6
ExecutionTime = 0.52 s  ClockTime = 1 s

scalarTransport execute: age
smoothSolver:  Solving for age, Initial residual = 0.0189288, Final residual = 0.00187313, No Iterations 11

Time = 41

smoothSolver:  Solving for Ux, Initial residual = 0.014632, Final residual = 0.00109048, No Iterations 6
smoothSolver:  Solving for Uy, Initial residual = 0.00960713, Final residual = 0.000736817, No Iterations 6
GAMG:  Solving for p, Initial residual = 0.00967307, Final residual = 0.0007976, No Iterations 3
time step continuity errors : sum local = 0.00206938, global = 5.60642e-05, cumulative = 0.00927395
smoothSolver:  Solving for omega, Initial residual = 0.00216949, Final residual = 0.000210232, No Iterations 5
smoothSolver:  Solving for k, Initial residual = 0.0255311, Final residual = 0.00208583, No Iterations 6
ExecutionTime = 0.53 s  ClockTime = 1 s

scalarTransport execute: age
smoothSolver:  Solving for age, Initial residual = 0.0196621, Final residual = 0.00174313, No Iterations 12

Time = 42

smoothSolver:  Solving for Ux, Initial residual = 0.0145411, Final residual = 0.00107261, No Iterations 6
smoothSolver:  Solving for Uy, Initial residual = 0.00949845, Final residual = 0.000730417, No Iterations 6
GAMG:  Solving for p, Initial residual = 0.00943407, Final residual = 0.000619858, No Iterations 3
time step continuity errors : sum local = 0.00160604, global = 4.9251e-05, cumulative = 0.0093232
smoothSolver:  Solving for omega, Initial residual = 0.00208025, Final residual = 0.000199254, No Iterations 5
smoothSolver:  Solving for k, Initial residual = 0.0247504, Final residual = 0.00202163, No Iterations 6
ExecutionTime = 0.54 s  ClockTime = 1 s

scalarTransport execute: age
smoothSolver:  Solving for age, Initial residual = 0.0204342, Final residual = 0.00185084, No Iterations 12

Time = 43

smoothSolver:  Solving for Ux, Initial residual = 0.014407, Final residual = 0.00105836, No Iterations 6
smoothSolver:  Solving for Uy, Initial residual = 0.00941589, Final residual = 0.000724879, No Iterations 6
GAMG:  Solving for p, Initial residual = 0.00931147, Final residual = 0.000587782, No Iterations 3
time step continuity errors : sum local = 0.00151475, global = 4.82588e-05, cumulative = 0.00937146
smoothSolver:  Solving for omega, Initial residual = 0.00199026, Final residual = 0.000189828, No Iterations 5
smoothSolver:  Solving for k, Initial residual = 0.0240096, Final residual = 0.00196089, No Iterations 6
ExecutionTime = 0.56 s  ClockTime = 1 s

scalarTransport execute: age
smoothSolver:  Solving for age, Initial residual = 0.0211304, Final residual = 0.0019516, No Iterations 12

Time = 44

smoothSolver:  Solving for Ux, Initial residual = 0.0142209, Final residual = 0.00104126, No Iterations 6
smoothSolver:  Solving for Uy, Initial residual = 0.00929536, Final residual = 0.00071838, No Iterations 6
GAMG:  Solving for p, Initial residual = 0.00915872, Final residual = 0.000560672, No Iterations 3
time step continuity errors : sum local = 0.00143999, global = 4.75065e-05, cumulative = 0.00941896
smoothSolver:  Solving for omega, Initial residual = 0.00189822, Final residual = 0.000180345, No Iterations 5
smoothSolver:  Solving for k, Initial residual = 0.0233187, Final residual = 0.00190354, No Iterations 6
ExecutionTime = 0.57 s  ClockTime = 1 s

scalarTransport execute: age
smoothSolver:  Solving for age, Initial residual = 0.0214384, Final residual = 0.00198625, No Iterations 12

Time = 45

smoothSolver:  Solving for Ux, Initial residual = 0.014023, Final residual = 0.00102224, No Iterations 6
smoothSolver:  Solving for Uy, Initial residual = 0.00918344, Final residual = 0.000712489, No Iterations 6
GAMG:  Solving for p, Initial residual = 0.00897366, Final residual = 0.000586248, No Iterations 3
time step continuity errors : sum local = 0.00149947, global = 4.67833e-05, cumulative = 0.00946575
smoothSolver:  Solving for omega, Initial residual = 0.00182797, Final residual = 0.000171898, No Iterations 5
smoothSolver:  Solving for k, Initial residual = 0.022663, Final residual = 0.00184915, No Iterations 6
ExecutionTime = 0.58 s  ClockTime = 1 s

scalarTransport execute: age
smoothSolver:  Solving for age, Initial residual = 0.0211478, Final residual = 0.00187637, No Iterations 12

Time = 46

smoothSolver:  Solving for Ux, Initial residual = 0.0138013, Final residual = 0.0010017, No Iterations 6
smoothSolver:  Solving for Uy, Initial residual = 0.00908606, Final residual = 0.000707414, No Iterations 6
GAMG:  Solving for p, Initial residual = 0.00876902, Final residual = 0.000581622, No Iterations 3
time step continuity errors : sum local = 0.0014808, global = 4.63709e-05, cumulative = 0.00951212
smoothSolver:  Solving for omega, Initial residual = 0.00175138, Final residual = 0.000163639, No Iterations 5
smoothSolver:  Solving for k, Initial residual = 0.0220503, Final residual = 0.00179769, No Iterations 6
ExecutionTime = 0.59 s  ClockTime = 1 s

scalarTransport execute: age
smoothSolver:  Solving for age, Initial residual = 0.0206688, Final residual = 0.00194597, No Iterations 11

Time = 47

smoothSolver:  Solving for Ux, Initial residual = 0.013577, Final residual = 0.000981104, No Iterations 6
smoothSolver:  Solving for Uy, Initial residual = 0.00899891, Final residual = 0.000703169, No Iterations 6
GAMG:  Solving for p, Initial residual = 0.00854444, Final residual = 0.000595994, No Iterations 3
time step continuity errors : sum local = 0.00150989, global = 4.82125e-05, cumulative = 0.00956033
smoothSolver:  Solving for omega, Initial residual = 0.00169053, Final residual = 0.000156287, No Iterations 5
smoothSolver:  Solving for k, Initial residual = 0.02147, Final residual = 0.00174897, No Iterations 6
ExecutionTime = 0.6 s  ClockTime = 1 s

scalarTransport execute: age
smoothSolver:  Solving for age, Initial residual = 0.0197147, Final residual = 0.00175255, No Iterations 11

Time = 48

smoothSolver:  Solving for Ux, Initial residual = 0.0133383, Final residual = 0.000960048, No Iterations 6
smoothSolver:  Solving for Uy, Initial residual = 0.00892983, Final residual = 0.000700057, No Iterations 6
GAMG:  Solving for p, Initial residual = 0.00833847, Final residual = 0.000593166, No Iterations 3
time step continuity errors : sum local = 0.00149434, global = 4.84894e-05, cumulative = 0.00960882
smoothSolver:  Solving for omega, Initial residual = 0.00162466, Final residual = 0.000149206, No Iterations 5
smoothSolver:  Solving for k, Initial residual = 0.0209246, Final residual = 0.00170269, No Iterations 6
ExecutionTime = 0.62 s  ClockTime = 1 s

scalarTransport execute: age
smoothSolver:  Solving for age, Initial residual = 0.0187538, Final residual = 0.00179282, No Iterations 10

Time = 49

smoothSolver:  Solving for Ux, Initial residual = 0.0130918, Final residual = 0.000938708, No Iterations 6
smoothSolver:  Solving for Uy, Initial residual = 0.00885341, Final residual = 0.000696258, No Iterations 6
GAMG:  Solving for p, Initial residual = 0.00814391, Final residual = 0.000593576, No Iterations 3
time step continuity errors : sum local = 0.00148588, global = 4.97846e-05, cumulative = 0.0096586
smoothSolver:  Solving for omega, Initial residual = 0.00156933, Final residual = 0.000142823, No Iterations 5
smoothSolver:  Solving for k, Initial residual = 0.0204059, Final residual = 0.00165861, No Iterations 6
ExecutionTime = 0.63 s  ClockTime = 1 s

scalarTransport execute: age
smoothSolver:  Solving for age, Initial residual = 0.0179784, Final residual = 0.00166118, No Iterations 10

Time = 50

smoothSolver:  Solving for Ux, Initial residual = 0.0128279, Final residual = 0.000916214, No Iterations 6
smoothSolver:  Solving for Uy, Initial residual = 0.00877561, Final residual = 0.000692383, No Iterations 6
GAMG:  Solving for p, Initial residual = 0.0079655, Final residual = 0.000600412, No Iterations 3
time step continuity errors : sum local = 0.0014922, global = 5.11235e-05, cumulative = 0.00970973
smoothSolver:  Solving for omega, Initial residual = 0.00151223, Final residual = 0.000136699, No Iterations 5
smoothSolver:  Solving for k, Initial residual = 0.0199167, Final residual = 0.00161648, No Iterations 6
ExecutionTime = 0.64 s  ClockTime = 1 s

scalarTransport execute: age
smoothSolver:  Solving for age, Initial residual = 0.0173971, Final residual = 0.00153557, No Iterations 10

Time = 51

smoothSolver:  Solving for Ux, Initial residual = 0.0125489, Final residual = 0.000892889, No Iterations 6
smoothSolver:  Solving for Uy, Initial residual = 0.00869071, Final residual = 0.000687852, No Iterations 6
GAMG:  Solving for p, Initial residual = 0.007796, Final residual = 0.000604237, No Iterations 3
time step continuity errors : sum local = 0.00149049, global = 5.34587e-05, cumulative = 0.00976319
smoothSolver:  Solving for omega, Initial residual = 0.00146287, Final residual = 0.000131101, No Iterations 5
smoothSolver:  Solving for k, Initial residual = 0.0194473, Final residual = 0.00157609, No Iterations 6
ExecutionTime = 0.65 s  ClockTime = 1 s

scalarTransport execute: age
smoothSolver:  Solving for age, Initial residual = 0.0167607, Final residual = 0.00164764, No Iterations 9

Time = 52

smoothSolver:  Solving for Ux, Initial residual = 0.0122611, Final residual = 0.000868954, No Iterations 6
smoothSolver:  Solving for Uy, Initial residual = 0.0086095, Final residual = 0.000683063, No Iterations 6
GAMG:  Solving for p, Initial residual = 0.00766307, Final residual = 0.000613913, No Iterations 3
time step continuity errors : sum local = 0.00150296, global = 5.53511e-05, cumulative = 0.00981854
smoothSolver:  Solving for omega, Initial residual = 0.00141261, Final residual = 0.000125613, No Iterations 5
smoothSolver:  Solving for k, Initial residual = 0.0190012, Final residual = 0.00153732, No Iterations 6
ExecutionTime = 0.66 s  ClockTime = 1 s

scalarTransport execute: age
smoothSolver:  Solving for age, Initial residual = 0.0161745, Final residual = 0.00156813, No Iterations 9

Time = 53

smoothSolver:  Solving for Ux, Initial residual = 0.0119776, Final residual = 0.000844809, No Iterations 6
smoothSolver:  Solving for Uy, Initial residual = 0.00852608, Final residual = 0.000676622, No Iterations 6
GAMG:  Solving for p, Initial residual = 0.0075368, Final residual = 0.000611169, No Iterations 3
time step continuity errors : sum local = 0.00148491, global = 5.77593e-05, cumulative = 0.0098763
smoothSolver:  Solving for omega, Initial residual = 0.00136506, Final residual = 0.000120239, No Iterations 5
smoothSolver:  Solving for k, Initial residual = 0.0185706, Final residual = 0.00150004, No Iterations 6
ExecutionTime = 0.68 s  ClockTime = 1 s

scalarTransport execute: age
smoothSolver:  Solving for age, Initial residual = 0.0154687, Final residual = 0.00148649, No Iterations 9

Time = 54

smoothSolver:  Solving for Ux, Initial residual = 0.0116926, Final residual = 0.000820348, No Iterations 6
smoothSolver:  Solving for Uy, Initial residual = 0.00843085, Final residual = 0.000669034, No Iterations 6
GAMG:  Solving for p, Initial residual = 0.00743551, Final residual = 0.000619617, No Iterations 3
time step continuity errors : sum local = 0.00149401, global = 5.93508e-05, cumulative = 0.00993565
smoothSolver:  Solving for omega, Initial residual = 0.00130544, Final residual = 0.000114482, No Iterations 5
smoothSolver:  Solving for k, Initial residual = 0.0181544, Final residual = 0.00146417, No Iterations 6
ExecutionTime = 0.69 s  ClockTime = 1 s

scalarTransport execute: age
smoothSolver:  Solving for age, Initial residual = 0.0147149, Final residual = 0.00141889, No Iterations 9

Time = 55

smoothSolver:  Solving for Ux, Initial residual = 0.0114117, Final residual = 0.000796032, No Iterations 6
smoothSolver:  Solving for Uy, Initial residual = 0.008323, Final residual = 0.000659117, No Iterations 6
GAMG:  Solving for p, Initial residual = 0.00734257, Final residual = 0.000617854, No Iterations 3
time step continuity errors : sum local = 0.00147834, global = 6.13311e-05, cumulative = 0.00999698
smoothSolver:  Solving for omega, Initial residual = 0.00125508, Final residual = 0.000109296, No Iterations 5
smoothSolver:  Solving for k, Initial residual = 0.0177519, Final residual = 0.00142936, No Iterations 6
ExecutionTime = 0.7 s  ClockTime = 1 s

scalarTransport execute: age
smoothSolver:  Solving for age, Initial residual = 0.0140307, Final residual = 0.00134296, No Iterations 9

Time = 56

smoothSolver:  Solving for Ux, Initial residual = 0.0111423, Final residual = 0.000771937, No Iterations 6
smoothSolver:  Solving for Uy, Initial residual = 0.00819876, Final residual = 0.000647406, No Iterations 6
GAMG:  Solving for p, Initial residual = 0.00727029, Final residual = 0.00062699, No Iterations 3
time step continuity errors : sum local = 0.00148867, global = 6.27e-05, cumulative = 0.0100597
smoothSolver:  Solving for omega, Initial residual = 0.00121839, Final residual = 0.000105163, No Iterations 5
smoothSolver:  Solving for k, Initial residual = 0.0173611, Final residual = 0.00139509, No Iterations 6
ExecutionTime = 0.71 s  ClockTime = 1 s

scalarTransport execute: age
smoothSolver:  Solving for age, Initial residual = 0.0134587, Final residual = 0.00126562, No Iterations 9

Time = 57

smoothSolver:  Solving for Ux, Initial residual = 0.0108894, Final residual = 0.000748379, No Iterations 6
smoothSolver:  Solving for Uy, Initial residual = 0.00804189, Final residual = 0.000633008, No Iterations 6
GAMG:  Solving for p, Initial residual = 0.00719545, Final residual = 0.000622694, No Iterations 3
time step continuity errors : sum local = 0.00146716, global = 6.42588e-05, cumulative = 0.0101239
smoothSolver:  Solving for omega, Initial residual = 0.00119044, Final residual = 0.000101388, No Iterations 5
smoothSolver:  Solving for k, Initial residual = 0.0169738, Final residual = 0.00136111, No Iterations 6
ExecutionTime = 0.72 s  ClockTime = 1 s

scalarTransport execute: age
smoothSolver:  Solving for age, Initial residual = 0.0128196, Final residual = 0.00119394, No Iterations 9

Time = 58

smoothSolver:  Solving for Ux, Initial residual = 0.0106412, Final residual = 0.000725247, No Iterations 6
smoothSolver:  Solving for Uy, Initial residual = 0.00787544, Final residual = 0.000616793, No Iterations 6
GAMG:  Solving for p, Initial residual = 0.00715328, Final residual = 0.000625828, No Iterations 3
time step continuity errors : sum local = 0.0014638, global = 6.50305e-05, cumulative = 0.010189
smoothSolver:  Solving for omega, Initial residual = 0.00115815, Final residual = 9.77888e-05, No Iterations 5
smoothSolver:  Solving for k, Initial residual = 0.0165891, Final residual = 0.00132728, No Iterations 6
ExecutionTime = 0.74 s  ClockTime = 1 s

scalarTransport execute: age
smoothSolver:  Solving for age, Initial residual = 0.0121824, Final residual = 0.00113624, No Iterations 9

Time = 59

smoothSolver:  Solving for Ux, Initial residual = 0.0103881, Final residual = 0.00070242, No Iterations 6
smoothSolver:  Solving for Uy, Initial residual = 0.00768212, Final residual = 0.000598438, No Iterations 6
GAMG:  Solving for p, Initial residual = 0.00710756, Final residual = 0.000618256, No Iterations 3
time step continuity errors : sum local = 0.00143596, global = 6.56283e-05, cumulative = 0.0102546
smoothSolver:  Solving for omega, Initial residual = 0.00113197, Final residual = 9.44981e-05, No Iterations 5
smoothSolver:  Solving for k, Initial residual = 0.0162036, Final residual = 0.00129345, No Iterations 6
ExecutionTime = 0.75 s  ClockTime = 1 s

scalarTransport execute: age
smoothSolver:  Solving for age, Initial residual = 0.011611, Final residual = 0.00108484, No Iterations 9

Time = 60

smoothSolver:  Solving for Ux, Initial residual = 0.010134, Final residual = 0.000679983, No Iterations 6
smoothSolver:  Solving for Uy, Initial residual = 0.00747433, Final residual = 0.000578913, No Iterations 6
GAMG:  Solving for p, Initial residual = 0.00709102, Final residual = 0.000612597, No Iterations 3
time step continuity errors : sum local = 0.00141293, global = 6.57224e-05, cumulative = 0.0103203
smoothSolver:  Solving for omega, Initial residual = 0.00110754, Final residual = 9.13944e-05, No Iterations 5
smoothSolver:  Solving for k, Initial residual = 0.0158158, Final residual = 0.00125934, No Iterations 6
ExecutionTime = 0.76 s  ClockTime = 1 s

scalarTransport execute: age
smoothSolver:  Solving for age, Initial residual = 0.0112182, Final residual = 0.00103374, No Iterations 9

Time = 61

smoothSolver:  Solving for Ux, Initial residual = 0.00988061, Final residual = 0.000658188, No Iterations 6
smoothSolver:  Solving for Uy, Initial residual = 0.00724184, Final residual = 0.000557357, No Iterations 6
GAMG:  Solving for p, Initial residual = 0.00707107, Final residual = 0.000598304, No Iterations 3
time step continuity errors : sum local = 0.00137054, global = 6.55224e-05, cumulative = 0.0103858
smoothSolver:  Solving for omega, Initial residual = 0.00108485, Final residual = 8.84435e-05, No Iterations 5
smoothSolver:  Solving for k, Initial residual = 0.0154204, Final residual = 0.00122471, No Iterations 6
ExecutionTime = 0.77 s  ClockTime = 1 s

scalarTransport execute: age
smoothSolver:  Solving for age, Initial residual = 0.0107359, Final residual = 0.000987193, No Iterations 9

Time = 62

smoothSolver:  Solving for Ux, Initial residual = 0.00962861, Final residual = 0.000636971, No Iterations 6
smoothSolver:  Solving for Uy, Initial residual = 0.00699533, Final residual = 0.000534662, No Iterations 6
GAMG:  Solving for p, Initial residual = 0.00707105, Final residual = 0.000585161, No Iterations 3
time step continuity errors : sum local = 0.0013313, global = 6.46242e-05, cumulative = 0.0104505
smoothSolver:  Solving for omega, Initial residual = 0.00107292, Final residual = 8.57365e-05, No Iterations 5
smoothSolver:  Solving for k, Initial residual = 0.0150176, Final residual = 0.00118956, No Iterations 6
ExecutionTime = 0.78 s  ClockTime = 1 s

scalarTransport execute: age
smoothSolver:  Solving for age, Initial residual = 0.0102059, Final residual = 0.000939566, No Iterations 9

Time = 63

smoothSolver:  Solving for Ux, Initial residual = 0.00937165, Final residual = 0.00061647, No Iterations 6
smoothSolver:  Solving for Uy, Initial residual = 0.00672896, Final residual = 0.00051038, No Iterations 6
GAMG:  Solving for p, Initial residual = 0.00707088, Final residual = 0.000567256, No Iterations 3
time step continuity errors : sum local = 0.00128183, global = 6.35914e-05, cumulative = 0.0105141
smoothSolver:  Solving for omega, Initial residual = 0.00105946, Final residual = 8.30902e-05, No Iterations 5
smoothSolver:  Solving for k, Initial residual = 0.0146054, Final residual = 0.00115379, No Iterations 6
ExecutionTime = 0.79 s  ClockTime = 1 s

scalarTransport execute: age
smoothSolver:  Solving for age, Initial residual = 0.00972799, Final residual = 0.000895699, No Iterations 9

Time = 64

smoothSolver:  Solving for Ux, Initial residual = 0.00912133, Final residual = 0.000596767, No Iterations 6
smoothSolver:  Solving for Uy, Initial residual = 0.00645619, Final residual = 0.000485452, No Iterations 6
GAMG:  Solving for p, Initial residual = 0.00709457, Final residual = 0.000547595, No Iterations 3
time step continuity errors : sum local = 0.00122903, global = 6.21236e-05, cumulative = 0.0105762
smoothSolver:  Solving for omega, Initial residual = 0.00103802, Final residual = 8.02798e-05, No Iterations 5
smoothSolver:  Solving for k, Initial residual = 0.0141811, Final residual = 0.00111713, No Iterations 6
ExecutionTime = 0.81 s  ClockTime = 1 s

scalarTransport execute: age
smoothSolver:  Solving for age, Initial residual = 0.00932013, Final residual = 0.000847938, No Iterations 9

Time = 65

smoothSolver:  Solving for Ux, Initial residual = 0.00888227, Final residual = 0.000577868, No Iterations 6
smoothSolver:  Solving for Uy, Initial residual = 0.00617435, Final residual = 0.000459581, No Iterations 6
GAMG:  Solving for p, Initial residual = 0.0071349, Final residual = 0.000532253, No Iterations 3
time step continuity errors : sum local = 0.00118646, global = 6.05156e-05, cumulative = 0.0106367
smoothSolver:  Solving for omega, Initial residual = 0.00101606, Final residual = 7.75184e-05, No Iterations 5
smoothSolver:  Solving for k, Initial residual = 0.0137455, Final residual = 0.00107977, No Iterations 6
ExecutionTime = 0.82 s  ClockTime = 1 s

scalarTransport execute: age
smoothSolver:  Solving for age, Initial residual = 0.00897376, Final residual = 0.000803613, No Iterations 9

Time = 66

smoothSolver:  Solving for Ux, Initial residual = 0.00865206, Final residual = 0.000862949, No Iterations 5
smoothSolver:  Solving for Uy, Initial residual = 0.00588809, Final residual = 0.000433437, No Iterations 6
GAMG:  Solving for p, Initial residual = 0.00715507, Final residual = 0.000512866, No Iterations 3
time step continuity errors : sum local = 0.0011352, global = 5.8512e-05, cumulative = 0.0106952
smoothSolver:  Solving for omega, Initial residual = 0.000991219, Final residual = 7.4785e-05, No Iterations 5
smoothSolver:  Solving for k, Initial residual = 0.0133012, Final residual = 0.00104204, No Iterations 6
ExecutionTime = 0.83 s  ClockTime = 1 s

scalarTransport execute: age
smoothSolver:  Solving for age, Initial residual = 0.00866278, Final residual = 0.000769938, No Iterations 9

Time = 67

smoothSolver:  Solving for Ux, Initial residual = 0.00849825, Final residual = 0.000845871, No Iterations 5
smoothSolver:  Solving for Uy, Initial residual = 0.00557259, Final residual = 0.000405108, No Iterations 6
GAMG:  Solving for p, Initial residual = 0.00731377, Final residual = 0.000494892, No Iterations 3
time step continuity errors : sum local = 0.00108725, global = 5.68508e-05, cumulative = 0.0107521
smoothSolver:  Solving for omega, Initial residual = 0.000967643, Final residual = 7.2218e-05, No Iterations 5
smoothSolver:  Solving for k, Initial residual = 0.0128502, Final residual = 0.00100411, No Iterations 6
ExecutionTime = 0.84 s  ClockTime = 1 s

scalarTransport execute: age
smoothSolver:  Solving for age, Initial residual = 0.00836674, Final residual = 0.00074986, No Iterations 9

Time = 68

smoothSolver:  Solving for Ux, Initial residual = 0.00831175, Final residual = 0.000825404, No Iterations 5
smoothSolver:  Solving for Uy, Initial residual = 0.00528816, Final residual = 0.000379028, No Iterations 6
GAMG:  Solving for p, Initial residual = 0.0075256, Final residual = 0.000477799, No Iterations 3
time step continuity errors : sum local = 0.00104344, global = 5.5883e-05, cumulative = 0.0108079
smoothSolver:  Solving for omega, Initial residual = 0.000948722, Final residual = 6.96701e-05, No Iterations 5
smoothSolver:  Solving for k, Initial residual = 0.0123997, Final residual = 0.000966287, No Iterations 6
ExecutionTime = 0.85 s  ClockTime = 1 s

scalarTransport execute: age
smoothSolver:  Solving for age, Initial residual = 0.0081323, Final residual = 0.000742683, No Iterations 9

Time = 69

smoothSolver:  Solving for Ux, Initial residual = 0.00811575, Final residual = 0.000804566, No Iterations 5
smoothSolver:  Solving for Uy, Initial residual = 0.00502404, Final residual = 0.000354711, No Iterations 6
GAMG:  Solving for p, Initial residual = 0.00769198, Final residual = 0.0004632, No Iterations 3
time step continuity errors : sum local = 0.00100663, global = 5.51808e-05, cumulative = 0.0108631
smoothSolver:  Solving for omega, Initial residual = 0.000925295, Final residual = 6.72179e-05, No Iterations 5
smoothSolver:  Solving for k, Initial residual = 0.0119439, Final residual = 0.000928708, No Iterations 6
ExecutionTime = 0.87 s  ClockTime = 1 s

scalarTransport execute: age
smoothSolver:  Solving for age, Initial residual = 0.00795176, Final residual = 0.000748189, No Iterations 9

Time = 70

smoothSolver:  Solving for Ux, Initial residual = 0.00793551, Final residual = 0.00078571, No Iterations 5
smoothSolver:  Solving for Uy, Initial residual = 0.00478204, Final residual = 0.000332325, No Iterations 6
GAMG:  Solving for p, Initial residual = 0.00782021, Final residual = 0.000452913, No Iterations 3
time step continuity errors : sum local = 0.000979995, global = 5.47499e-05, cumulative = 0.0109179
smoothSolver:  Solving for omega, Initial residual = 0.000904341, Final residual = 6.48971e-05, No Iterations 5
smoothSolver:  Solving for k, Initial residual = 0.0114911, Final residual = 0.000891613, No Iterations 6
ExecutionTime = 0.88 s  ClockTime = 1 s

scalarTransport execute: age
smoothSolver:  Solving for age, Initial residual = 0.00782528, Final residual = 0.000767923, No Iterations 9

Time = 71

smoothSolver:  Solving for Ux, Initial residual = 0.00776926, Final residual = 0.000768278, No Iterations 5
smoothSolver:  Solving for Uy, Initial residual = 0.00456922, Final residual = 0.000313915, No Iterations 6
GAMG:  Solving for p, Initial residual = 0.00786347, Final residual = 0.000446965, No Iterations 3
time step continuity errors : sum local = 0.000964382, global = 5.39719e-05, cumulative = 0.0109718
smoothSolver:  Solving for omega, Initial residual = 0.00088563, Final residual = 6.25899e-05, No Iterations 5
smoothSolver:  Solving for k, Initial residual = 0.0110451, Final residual = 0.000855319, No Iterations 6
ExecutionTime = 0.89 s  ClockTime = 1 s

scalarTransport execute: age
smoothSolver:  Solving for age, Initial residual = 0.00773385, Final residual = 0.000704528, No Iterations 10

Time = 72

smoothSolver:  Solving for Ux, Initial residual = 0.00760298, Final residual = 0.000752291, No Iterations 5
smoothSolver:  Solving for Uy, Initial residual = 0.00437455, Final residual = 0.000299473, No Iterations 6
GAMG:  Solving for p, Initial residual = 0.00784088, Final residual = 0.000443296, No Iterations 3
time step continuity errors : sum local = 0.000955559, global = 5.32202e-05, cumulative = 0.0110251
smoothSolver:  Solving for omega, Initial residual = 0.000869391, Final residual = 6.02581e-05, No Iterations 5
smoothSolver:  Solving for k, Initial residual = 0.0106088, Final residual = 0.000820067, No Iterations 6
ExecutionTime = 0.9 s  ClockTime = 1 s

scalarTransport execute: age
smoothSolver:  Solving for age, Initial residual = 0.00766088, Final residual = 0.000741294, No Iterations 10

Time = 73

smoothSolver:  Solving for Ux, Initial residual = 0.00744946, Final residual = 0.000737851, No Iterations 5
smoothSolver:  Solving for Uy, Initial residual = 0.00419976, Final residual = 0.000286547, No Iterations 6
GAMG:  Solving for p, Initial residual = 0.00776335, Final residual = 0.00043802, No Iterations 3
time step continuity errors : sum local = 0.00094388, global = 5.24014e-05, cumulative = 0.0110775
smoothSolver:  Solving for omega, Initial residual = 0.000851128, Final residual = 5.78884e-05, No Iterations 5
smoothSolver:  Solving for k, Initial residual = 0.0101882, Final residual = 0.000786124, No Iterations 6
ExecutionTime = 0.91 s  ClockTime = 1 s

scalarTransport execute: age
smoothSolver:  Solving for age, Initial residual = 0.00762234, Final residual = 0.000692097, No Iterations 11

Time = 74

smoothSolver:  Solving for Ux, Initial residual = 0.0073027, Final residual = 0.000724387, No Iterations 5
smoothSolver:  Solving for Uy, Initial residual = 0.0040516, Final residual = 0.000274405, No Iterations 6
GAMG:  Solving for p, Initial residual = 0.00766345, Final residual = 0.000428063, No Iterations 3
time step continuity errors : sum local = 0.000922572, global = 5.12043e-05, cumulative = 0.0111287
smoothSolver:  Solving for omega, Initial residual = 0.000829257, Final residual = 5.54583e-05, No Iterations 5
smoothSolver:  Solving for k, Initial residual = 0.00978672, Final residual = 0.000753691, No Iterations 6
ExecutionTime = 0.92 s  ClockTime = 1 s

scalarTransport execute: age
smoothSolver:  Solving for age, Initial residual = 0.0076131, Final residual = 0.000733324, No Iterations 11

Time = 75

smoothSolver:  Solving for Ux, Initial residual = 0.00715318, Final residual = 0.000712515, No Iterations 5
smoothSolver:  Solving for Uy, Initial residual = 0.0039165, Final residual = 0.000262944, No Iterations 6
GAMG:  Solving for p, Initial residual = 0.00757928, Final residual = 0.000414864, No Iterations 3
time step continuity errors : sum local = 0.000894334, global = 4.96498e-05, cumulative = 0.0111783
smoothSolver:  Solving for omega, Initial residual = 0.00080645, Final residual = 5.29833e-05, No Iterations 5
smoothSolver:  Solving for k, Initial residual = 0.00940771, Final residual = 0.000722777, No Iterations 6
ExecutionTime = 0.94 s  ClockTime = 1 s

scalarTransport execute: age
smoothSolver:  Solving for age, Initial residual = 0.00765936, Final residual = 0.00068373, No Iterations 12

Time = 76

smoothSolver:  Solving for Ux, Initial residual = 0.00700666, Final residual = 0.000455271, No Iterations 6
smoothSolver:  Solving for Uy, Initial residual = 0.00378884, Final residual = 0.000252231, No Iterations 6
GAMG:  Solving for p, Initial residual = 0.00747824, Final residual = 0.000399715, No Iterations 3
time step continuity errors : sum local = 0.000861832, global = 4.94311e-05, cumulative = 0.0112278
smoothSolver:  Solving for omega, Initial residual = 0.00078232, Final residual = 5.05255e-05, No Iterations 5
smoothSolver:  Solving for k, Initial residual = 0.00905388, Final residual = 0.000693344, No Iterations 6
ExecutionTime = 0.95 s  ClockTime = 1 s

scalarTransport execute: age
smoothSolver:  Solving for age, Initial residual = 0.00771439, Final residual = 0.000717649, No Iterations 12

Time = 77

smoothSolver:  Solving for Ux, Initial residual = 0.00681257, Final residual = 0.000443346, No Iterations 6
smoothSolver:  Solving for Uy, Initial residual = 0.00371193, Final residual = 0.000245928, No Iterations 6
GAMG:  Solving for p, Initial residual = 0.00733643, Final residual = 0.000383305, No Iterations 3
time step continuity errors : sum local = 0.000826709, global = 4.47293e-05, cumulative = 0.0112725
smoothSolver:  Solving for omega, Initial residual = 0.000758061, Final residual = 4.80073e-05, No Iterations 5
smoothSolver:  Solving for k, Initial residual = 0.00872506, Final residual = 0.000665378, No Iterations 6
ExecutionTime = 0.96 s  ClockTime = 1 s

scalarTransport execute: age
smoothSolver:  Solving for age, Initial residual = 0.00781826, Final residual = 0.000752013, No Iterations 12

Time = 78

smoothSolver:  Solving for Ux, Initial residual = 0.00666235, Final residual = 0.000435079, No Iterations 6
smoothSolver:  Solving for Uy, Initial residual = 0.00360015, Final residual = 0.000237419, No Iterations 6
GAMG:  Solving for p, Initial residual = 0.00720983, Final residual = 0.000374207, No Iterations 3
time step continuity errors : sum local = 0.000806966, global = 4.10456e-05, cumulative = 0.0113135
smoothSolver:  Solving for omega, Initial residual = 0.000731299, Final residual = 4.55369e-05, No Iterations 5
smoothSolver:  Solving for k, Initial residual = 0.00841481, Final residual = 0.000638601, No Iterations 6
ExecutionTime = 0.97 s  ClockTime = 1 s

scalarTransport execute: age
smoothSolver:  Solving for age, Initial residual = 0.00788727, Final residual = 0.000780163, No Iterations 12

Time = 79

smoothSolver:  Solving for Ux, Initial residual = 0.00651352, Final residual = 0.000426564, No Iterations 6
smoothSolver:  Solving for Uy, Initial residual = 0.00350251, Final residual = 0.000230161, No Iterations 6
GAMG:  Solving for p, Initial residual = 0.007038, Final residual = 0.000356083, No Iterations 3
time step continuity errors : sum local = 0.000767652, global = 3.69904e-05, cumulative = 0.0113505
smoothSolver:  Solving for omega, Initial residual = 0.000704214, Final residual = 4.3138e-05, No Iterations 5
smoothSolver:  Solving for k, Initial residual = 0.00811709, Final residual = 0.000612836, No Iterations 6
ExecutionTime = 0.98 s  ClockTime = 1 s

scalarTransport execute: age
smoothSolver:  Solving for age, Initial residual = 0.00793167, Final residual = 0.000702969, No Iterations 13

Time = 80

smoothSolver:  Solving for Ux, Initial residual = 0.00637576, Final residual = 0.000418189, No Iterations 6
smoothSolver:  Solving for Uy, Initial residual = 0.0034163, Final residual = 0.000223645, No Iterations 6
GAMG:  Solving for p, Initial residual = 0.00683005, Final residual = 0.0006824, No Iterations 2
time step continuity errors : sum local = 0.00147015, global = 9.49842e-05, cumulative = 0.0114455
smoothSolver:  Solving for omega, Initial residual = 0.000682136, Final residual = 6.7292e-05, No Iterations 4
smoothSolver:  Solving for k, Initial residual = 0.00783311, Final residual = 0.000587918, No Iterations 6
ExecutionTime = 1 s  ClockTime = 1 s

scalarTransport execute: age
smoothSolver:  Solving for age, Initial residual = 0.00785185, Final residual = 0.000700969, No Iterations 13

Time = 81

smoothSolver:  Solving for Ux, Initial residual = 0.00620428, Final residual = 0.000408579, No Iterations 6
smoothSolver:  Solving for Uy, Initial residual = 0.00333916, Final residual = 0.000218055, No Iterations 6
GAMG:  Solving for p, Initial residual = 0.00681636, Final residual = 0.000484596, No Iterations 3
time step continuity errors : sum local = 0.00104637, global = 1.24636e-05, cumulative = 0.011458
smoothSolver:  Solving for omega, Initial residual = 0.000671712, Final residual = 6.4414e-05, No Iterations 4
smoothSolver:  Solving for k, Initial residual = 0.00755829, Final residual = 0.000564241, No Iterations 6
ExecutionTime = 1.01 s  ClockTime = 1 s

scalarTransport execute: age
smoothSolver:  Solving for age, Initial residual = 0.00799488, Final residual = 0.000799188, No Iterations 12

Time = 82

smoothSolver:  Solving for Ux, Initial residual = 0.00608828, Final residual = 0.000397691, No Iterations 6
smoothSolver:  Solving for Uy, Initial residual = 0.0033299, Final residual = 0.000331745, No Iterations 5
GAMG:  Solving for p, Initial residual = 0.00645921, Final residual = 0.000300601, No Iterations 3
time step continuity errors : sum local = 0.000645464, global = 2.29148e-05, cumulative = 0.0114809
smoothSolver:  Solving for omega, Initial residual = 0.000648111, Final residual = 6.24768e-05, No Iterations 4
smoothSolver:  Solving for k, Initial residual = 0.00730026, Final residual = 0.000540943, No Iterations 6
ExecutionTime = 1.02 s  ClockTime = 1 s

scalarTransport execute: age
smoothSolver:  Solving for age, Initial residual = 0.00777863, Final residual = 0.000777247, No Iterations 12

Time = 83

smoothSolver:  Solving for Ux, Initial residual = 0.00586857, Final residual = 0.000386076, No Iterations 6
smoothSolver:  Solving for Uy, Initial residual = 0.00324199, Final residual = 0.000320784, No Iterations 5
GAMG:  Solving for p, Initial residual = 0.00632631, Final residual = 0.000553536, No Iterations 2
time step continuity errors : sum local = 0.00119026, global = 8.53441e-05, cumulative = 0.0115662
smoothSolver:  Solving for omega, Initial residual = 0.000635738, Final residual = 6.02287e-05, No Iterations 4
smoothSolver:  Solving for k, Initial residual = 0.00703942, Final residual = 0.000518037, No Iterations 6
ExecutionTime = 1.03 s  ClockTime = 1 s

scalarTransport execute: age
smoothSolver:  Solving for age, Initial residual = 0.0075542, Final residual = 0.000744827, No Iterations 12

Time = 84

smoothSolver:  Solving for Ux, Initial residual = 0.00566958, Final residual = 0.000374353, No Iterations 6
smoothSolver:  Solving for Uy, Initial residual = 0.00320168, Final residual = 0.000317866, No Iterations 5
GAMG:  Solving for p, Initial residual = 0.00628095, Final residual = 0.0004179, No Iterations 3
time step continuity errors : sum local = 0.000899324, global = 5.52005e-07, cumulative = 0.0115668
smoothSolver:  Solving for omega, Initial residual = 0.000625079, Final residual = 5.82074e-05, No Iterations 4
smoothSolver:  Solving for k, Initial residual = 0.00677965, Final residual = 0.000496356, No Iterations 6
ExecutionTime = 1.04 s  ClockTime = 1 s

scalarTransport execute: age
smoothSolver:  Solving for age, Initial residual = 0.00756702, Final residual = 0.000715394, No Iterations 12

Time = 85

smoothSolver:  Solving for Ux, Initial residual = 0.00550417, Final residual = 0.00035714, No Iterations 6
smoothSolver:  Solving for Uy, Initial residual = 0.00325121, Final residual = 0.000322879, No Iterations 5
GAMG:  Solving for p, Initial residual = 0.00611705, Final residual = 0.000557806, No Iterations 2
time step continuity errors : sum local = 0.00119248, global = 9.05672e-05, cumulative = 0.0116573
smoothSolver:  Solving for omega, Initial residual = 0.00061657, Final residual = 5.61916e-05, No Iterations 4
smoothSolver:  Solving for k, Initial residual = 0.00654703, Final residual = 0.000474717, No Iterations 6
ExecutionTime = 1.05 s  ClockTime = 2 s

scalarTransport execute: age
smoothSolver:  Solving for age, Initial residual = 0.00723866, Final residual = 0.000670879, No Iterations 12

Time = 86

smoothSolver:  Solving for Ux, Initial residual = 0.00526537, Final residual = 0.0003433, No Iterations 6
smoothSolver:  Solving for Uy, Initial residual = 0.00311185, Final residual = 0.00030678, No Iterations 5
GAMG:  Solving for p, Initial residual = 0.00608386, Final residual = 0.000388468, No Iterations 3
time step continuity errors : sum local = 0.000832296, global = -2.74189e-06, cumulative = 0.0116546
smoothSolver:  Solving for omega, Initial residual = 0.000603427, Final residual = 5.41517e-05, No Iterations 4
smoothSolver:  Solving for k, Initial residual = 0.00630019, Final residual = 0.000454264, No Iterations 6
ExecutionTime = 1.07 s  ClockTime = 2 s

scalarTransport execute: age
smoothSolver:  Solving for age, Initial residual = 0.00713576, Final residual = 0.000626598, No Iterations 12

Time = 87

smoothSolver:  Solving for Ux, Initial residual = 0.00509553, Final residual = 0.000505225, No Iterations 5
smoothSolver:  Solving for Uy, Initial residual = 0.00317743, Final residual = 0.000313928, No Iterations 5
GAMG:  Solving for p, Initial residual = 0.00591389, Final residual = 0.000496793, No Iterations 2
time step continuity errors : sum local = 0.00105855, global = 9.60541e-05, cumulative = 0.0117507
smoothSolver:  Solving for omega, Initial residual = 0.000596977, Final residual = 5.20532e-05, No Iterations 4
smoothSolver:  Solving for k, Initial residual = 0.00608479, Final residual = 0.000433754, No Iterations 6
ExecutionTime = 1.08 s  ClockTime = 2 s

scalarTransport execute: age
smoothSolver:  Solving for age, Initial residual = 0.00679937, Final residual = 0.000672572, No Iterations 11

Time = 88

smoothSolver:  Solving for Ux, Initial residual = 0.00487327, Final residual = 0.0004847, No Iterations 5
smoothSolver:  Solving for Uy, Initial residual = 0.00302299, Final residual = 0.000296161, No Iterations 5
GAMG:  Solving for p, Initial residual = 0.00578227, Final residual = 0.000368373, No Iterations 3
time step continuity errors : sum local = 0.000785296, global = -4.25903e-06, cumulative = 0.0117464
smoothSolver:  Solving for omega, Initial residual = 0.000582374, Final residual = 4.99132e-05, No Iterations 4
smoothSolver:  Solving for k, Initial residual = 0.0058463, Final residual = 0.000414178, No Iterations 6
ExecutionTime = 1.09 s  ClockTime = 2 s

scalarTransport execute: age
smoothSolver:  Solving for age, Initial residual = 0.00663095, Final residual = 0.0006346, No Iterations 11

Time = 89

smoothSolver:  Solving for Ux, Initial residual = 0.00471979, Final residual = 0.000463314, No Iterations 5
smoothSolver:  Solving for Uy, Initial residual = 0.00308967, Final residual = 0.000302589, No Iterations 5
GAMG:  Solving for p, Initial residual = 0.00560578, Final residual = 0.000469193, No Iterations 2
time step continuity errors : sum local = 0.000992738, global = 8.97754e-05, cumulative = 0.0118362
smoothSolver:  Solving for omega, Initial residual = 0.000576696, Final residual = 4.77954e-05, No Iterations 4
smoothSolver:  Solving for k, Initial residual = 0.00564276, Final residual = 0.000394654, No Iterations 6
ExecutionTime = 1.1 s  ClockTime = 2 s

scalarTransport execute: age
smoothSolver:  Solving for age, Initial residual = 0.00628449, Final residual = 0.000593208, No Iterations 11

Time = 90

smoothSolver:  Solving for Ux, Initial residual = 0.00446542, Final residual = 0.000439028, No Iterations 5
smoothSolver:  Solving for Uy, Initial residual = 0.00297146, Final residual = 0.000288191, No Iterations 5
GAMG:  Solving for p, Initial residual = 0.0054852, Final residual = 0.000358633, No Iterations 3
time step continuity errors : sum local = 0.000758496, global = -5.57261e-06, cumulative = 0.0118306
smoothSolver:  Solving for omega, Initial residual = 0.000558215, Final residual = 4.55618e-05, No Iterations 4
smoothSolver:  Solving for k, Initial residual = 0.00540993, Final residual = 0.000375924, No Iterations 6
ExecutionTime = 1.11 s  ClockTime = 2 s

scalarTransport execute: age
smoothSolver:  Solving for age, Initial residual = 0.00611423, Final residual = 0.000559761, No Iterations 11

Time = 91

smoothSolver:  Solving for Ux, Initial residual = 0.00428582, Final residual = 0.00041382, No Iterations 5
smoothSolver:  Solving for Uy, Initial residual = 0.00304507, Final residual = 0.000296257, No Iterations 5
GAMG:  Solving for p, Initial residual = 0.00529686, Final residual = 0.000451169, No Iterations 2
time step continuity errors : sum local = 0.000947454, global = 8.51142e-05, cumulative = 0.0119157
smoothSolver:  Solving for omega, Initial residual = 0.000547924, Final residual = 4.34908e-05, No Iterations 4
smoothSolver:  Solving for k, Initial residual = 0.00521778, Final residual = 0.000357445, No Iterations 6
ExecutionTime = 1.12 s  ClockTime = 2 s

scalarTransport execute: age
smoothSolver:  Solving for age, Initial residual = 0.00581859, Final residual = 0.000527052, No Iterations 11

Time = 92

smoothSolver:  Solving for Ux, Initial residual = 0.00402992, Final residual = 0.000389369, No Iterations 5
smoothSolver:  Solving for Uy, Initial residual = 0.00294379, Final residual = 0.00028343, No Iterations 5
GAMG:  Solving for p, Initial residual = 0.0052108, Final residual = 0.000351814, No Iterations 3
time step continuity errors : sum local = 0.000738057, global = -7.60622e-06, cumulative = 0.0119081
smoothSolver:  Solving for omega, Initial residual = 0.000532225, Final residual = 4.1315e-05, No Iterations 4
smoothSolver:  Solving for k, Initial residual = 0.00499465, Final residual = 0.000339694, No Iterations 6
ExecutionTime = 1.13 s  ClockTime = 2 s

scalarTransport execute: age
smoothSolver:  Solving for age, Initial residual = 0.00566153, Final residual = 0.000505152, No Iterations 11

Time = 93

smoothSolver:  Solving for Ux, Initial residual = 0.00384951, Final residual = 0.000364257, No Iterations 5
smoothSolver:  Solving for Uy, Initial residual = 0.00300518, Final residual = 0.000290213, No Iterations 5
GAMG:  Solving for p, Initial residual = 0.00500449, Final residual = 0.000437429, No Iterations 2
time step continuity errors : sum local = 0.000911007, global = 7.97462e-05, cumulative = 0.0119879
smoothSolver:  Solving for omega, Initial residual = 0.000520757, Final residual = 3.95088e-05, No Iterations 4
smoothSolver:  Solving for k, Initial residual = 0.00481105, Final residual = 0.000322403, No Iterations 6
ExecutionTime = 1.15 s  ClockTime = 2 s

scalarTransport execute: age
smoothSolver:  Solving for age, Initial residual = 0.00541321, Final residual = 0.000484192, No Iterations 11

Time = 94

smoothSolver:  Solving for Ux, Initial residual = 0.003604, Final residual = 0.000340851, No Iterations 5
smoothSolver:  Solving for Uy, Initial residual = 0.00290439, Final residual = 0.000277198, No Iterations 5
GAMG:  Solving for p, Initial residual = 0.00492021, Final residual = 0.000345745, No Iterations 3
time step continuity errors : sum local = 0.000719609, global = -8.96669e-06, cumulative = 0.0119789
smoothSolver:  Solving for omega, Initial residual = 0.000507387, Final residual = 3.75416e-05, No Iterations 4
smoothSolver:  Solving for k, Initial residual = 0.00459424, Final residual = 0.000305809, No Iterations 6
ExecutionTime = 1.16 s  ClockTime = 2 s

scalarTransport execute: age
smoothSolver:  Solving for age, Initial residual = 0.00526267, Final residual = 0.000472892, No Iterations 11

Time = 95

smoothSolver:  Solving for Ux, Initial residual = 0.00343323, Final residual = 0.000316757, No Iterations 5
smoothSolver:  Solving for Uy, Initial residual = 0.00294844, Final residual = 0.000281106, No Iterations 5
GAMG:  Solving for p, Initial residual = 0.00476447, Final residual = 0.000426459, No Iterations 2
time step continuity errors : sum local = 0.000881565, global = 7.23947e-05, cumulative = 0.0120513
smoothSolver:  Solving for omega, Initial residual = 0.000493701, Final residual = 3.61549e-05, No Iterations 4
smoothSolver:  Solving for k, Initial residual = 0.00441567, Final residual = 0.000289845, No Iterations 6
ExecutionTime = 1.17 s  ClockTime = 2 s

scalarTransport execute: age
smoothSolver:  Solving for age, Initial residual = 0.00504514, Final residual = 0.000460647, No Iterations 11

Time = 96

smoothSolver:  Solving for Ux, Initial residual = 0.00320731, Final residual = 0.000294625, No Iterations 5
[...]

Time = 602

smoothSolver:  Solving for Ux, Initial residual = 7.92835e-07, Final residual = 5.14419e-08, No Iterations 5
smoothSolver:  Solving for Uy, Initial residual = 5.58534e-07, Final residual = 4.69301e-08, No Iterations 5
GAMG:  Solving for p, Initial residual = 1.60063e-06, Final residual = 8.64023e-08, No Iterations 3
time step continuity errors : sum local = 2.03806e-07, global = 1.02555e-08, cumulative = 0.0161859
smoothSolver:  Solving for omega, Initial residual = 7.81705e-08, Final residual = 8.82396e-09, No Iterations 3
smoothSolver:  Solving for k, Initial residual = 1.09433e-07, Final residual = 7.5576e-09, No Iterations 5
ExecutionTime = 7.13 s  ClockTime = 8 s

scalarTransport execute: age
smoothSolver:  Solving for age, Initial residual = 0.000334014, Final residual = 3.24025e-05, No Iterations 14

Time = 603

smoothSolver:  Solving for Ux, Initial residual = 7.75411e-07, Final residual = 5.0314e-08, No Iterations 5
smoothSolver:  Solving for Uy, Initial residual = 5.46355e-07, Final residual = 4.59364e-08, No Iterations 5
GAMG:  Solving for p, Initial residual = 1.56603e-06, Final residual = 8.46081e-08, No Iterations 3
time step continuity errors : sum local = 1.99574e-07, global = 1.00075e-08, cumulative = 0.0161859
smoothSolver:  Solving for omega, Initial residual = 7.66094e-08, Final residual = 8.65838e-09, No Iterations 3
smoothSolver:  Solving for k, Initial residual = 1.07306e-07, Final residual = 7.41378e-09, No Iterations 5
ExecutionTime = 7.15 s  ClockTime = 8 s

scalarTransport execute: age
smoothSolver:  Solving for age, Initial residual = 0.000333426, Final residual = 3.23455e-05, No Iterations 14

Time = 604

smoothSolver:  Solving for Ux, Initial residual = 7.58339e-07, Final residual = 4.92083e-08, No Iterations 5
smoothSolver:  Solving for Uy, Initial residual = 5.34425e-07, Final residual = 4.49631e-08, No Iterations 5
GAMG:  Solving for p, Initial residual = 1.53218e-06, Final residual = 8.28482e-08, No Iterations 3
time step continuity errors : sum local = 1.95423e-07, global = 9.76597e-09, cumulative = 0.0161859
smoothSolver:  Solving for omega, Initial residual = 7.50581e-08, Final residual = 8.49276e-09, No Iterations 3
smoothSolver:  Solving for k, Initial residual = 1.05218e-07, Final residual = 7.27235e-09, No Iterations 5
ExecutionTime = 7.16 s  ClockTime = 8 s

scalarTransport execute: age
smoothSolver:  Solving for age, Initial residual = 0.000332839, Final residual = 3.22887e-05, No Iterations 14

Time = 605

smoothSolver:  Solving for Ux, Initial residual = 7.41609e-07, Final residual = 4.81246e-08, No Iterations 5
smoothSolver:  Solving for Uy, Initial residual = 5.22747e-07, Final residual = 4.40098e-08, No Iterations 5
GAMG:  Solving for p, Initial residual = 1.49902e-06, Final residual = 8.11216e-08, No Iterations 3
time step continuity errors : sum local = 1.9135e-07, global = 9.53083e-09, cumulative = 0.016186
smoothSolver:  Solving for omega, Initial residual = 7.35215e-08, Final residual = 8.32792e-09, No Iterations 3
smoothSolver:  Solving for k, Initial residual = 1.03171e-07, Final residual = 7.13329e-09, No Iterations 5
ExecutionTime = 7.17 s  ClockTime = 8 s

scalarTransport execute: age
smoothSolver:  Solving for age, Initial residual = 0.000332255, Final residual = 3.22319e-05, No Iterations 14

Time = 606

smoothSolver:  Solving for Ux, Initial residual = 7.25222e-07, Final residual = 4.70627e-08, No Iterations 5
smoothSolver:  Solving for Uy, Initial residual = 5.11316e-07, Final residual = 4.30763e-08, No Iterations 5
GAMG:  Solving for p, Initial residual = 1.46661e-06, Final residual = 7.9429e-08, No Iterations 3
time step continuity errors : sum local = 1.87358e-07, global = 9.30193e-09, cumulative = 0.016186
smoothSolver:  Solving for omega, Initial residual = 7.20034e-08, Final residual = 8.16438e-09, No Iterations 3
smoothSolver:  Solving for k, Initial residual = 1.01161e-07, Final residual = 6.99657e-09, No Iterations 5
ExecutionTime = 7.18 s  ClockTime = 8 s

scalarTransport execute: age
smoothSolver:  Solving for age, Initial residual = 0.000331672, Final residual = 3.21754e-05, No Iterations 14

Time = 607

smoothSolver:  Solving for Ux, Initial residual = 7.09173e-07, Final residual = 4.60226e-08, No Iterations 5
smoothSolver:  Solving for Uy, Initial residual = 5.00141e-07, Final residual = 4.21624e-08, No Iterations 5
GAMG:  Solving for p, Initial residual = 1.43488e-06, Final residual = 7.77694e-08, No Iterations 3
time step continuity errors : sum local = 1.83443e-07, global = 9.07905e-09, cumulative = 0.016186
smoothSolver:  Solving for omega, Initial residual = 7.05063e-08, Final residual = 8.00254e-09, No Iterations 3
smoothSolver:  Solving for k, Initial residual = 9.91904e-08, Final residual = 6.86215e-09, No Iterations 5
ExecutionTime = 7.19 s  ClockTime = 8 s

scalarTransport execute: age
smoothSolver:  Solving for age, Initial residual = 0.000331091, Final residual = 3.21189e-05, No Iterations 14

Time = 608

smoothSolver:  Solving for Ux, Initial residual = 6.93472e-07, Final residual = 4.50042e-08, No Iterations 5
smoothSolver:  Solving for Uy, Initial residual = 4.89243e-07, Final residual = 4.12675e-08, No Iterations 5
GAMG:  Solving for p, Initial residual = 1.40382e-06, Final residual = 7.61435e-08, No Iterations 3
time step continuity errors : sum local = 1.79608e-07, global = 8.86186e-09, cumulative = 0.016186
smoothSolver:  Solving for omega, Initial residual = 6.90323e-08, Final residual = 7.84265e-09, No Iterations 3
smoothSolver:  Solving for k, Initial residual = 9.72571e-08, Final residual = 6.73001e-09, No Iterations 5
ExecutionTime = 7.2 s  ClockTime = 8 s

scalarTransport execute: age
smoothSolver:  Solving for age, Initial residual = 0.000330511, Final residual = 3.20626e-05, No Iterations 14

Time = 609

smoothSolver:  Solving for Ux, Initial residual = 6.78117e-07, Final residual = 4.40073e-08, No Iterations 5
smoothSolver:  Solving for Uy, Initial residual = 4.78574e-07, Final residual = 4.03913e-08, No Iterations 5
GAMG:  Solving for p, Initial residual = 1.37341e-06, Final residual = 7.4551e-08, No Iterations 3
time step continuity errors : sum local = 1.75852e-07, global = 8.65003e-09, cumulative = 0.016186
smoothSolver:  Solving for omega, Initial residual = 6.7583e-08, Final residual = 7.68493e-09, No Iterations 3
smoothSolver:  Solving for k, Initial residual = 9.53611e-08, Final residual = 6.60014e-09, No Iterations 5
ExecutionTime = 7.23 s  ClockTime = 8 s

scalarTransport execute: age
smoothSolver:  Solving for age, Initial residual = 0.000329933, Final residual = 3.20064e-05, No Iterations 14

Time = 610

smoothSolver:  Solving for Ux, Initial residual = 6.63089e-07, Final residual = 4.30318e-08, No Iterations 5
smoothSolver:  Solving for Uy, Initial residual = 4.68129e-07, Final residual = 3.95331e-08, No Iterations 5
GAMG:  Solving for p, Initial residual = 1.34361e-06, Final residual = 7.29919e-08, No Iterations 3
time step continuity errors : sum local = 1.72174e-07, global = 8.44318e-09, cumulative = 0.016186
smoothSolver:  Solving for omega, Initial residual = 6.61593e-08, Final residual = 7.52955e-09, No Iterations 3
smoothSolver:  Solving for k, Initial residual = 9.35021e-08, Final residual = 6.47251e-09, No Iterations 5
ExecutionTime = 7.24 s  ClockTime = 8 s

scalarTransport execute: age
smoothSolver:  Solving for age, Initial residual = 0.000329358, Final residual = 3.19503e-05, No Iterations 14

Time = 611

smoothSolver:  Solving for Ux, Initial residual = 6.48381e-07, Final residual = 4.20776e-08, No Iterations 5
smoothSolver:  Solving for Uy, Initial residual = 4.57901e-07, Final residual = 3.86925e-08, No Iterations 5
GAMG:  Solving for p, Initial residual = 1.31443e-06, Final residual = 7.14663e-08, No Iterations 3
time step continuity errors : sum local = 1.68576e-07, global = 8.24091e-09, cumulative = 0.016186
smoothSolver:  Solving for omega, Initial residual = 6.47625e-08, Final residual = 7.37667e-09, No Iterations 3
smoothSolver:  Solving for k, Initial residual = 9.16799e-08, Final residual = 6.34712e-09, No Iterations 5
ExecutionTime = 7.25 s  ClockTime = 8 s

scalarTransport execute: age
smoothSolver:  Solving for age, Initial residual = 0.000328784, Final residual = 3.18944e-05, No Iterations 14

Time = 612

smoothSolver:  Solving for Ux, Initial residual = 6.3399e-07, Final residual = 4.11442e-08, No Iterations 5
smoothSolver:  Solving for Uy, Initial residual = 4.47885e-07, Final residual = 3.78688e-08, No Iterations 5
GAMG:  Solving for p, Initial residual = 1.28585e-06, Final residual = 6.99742e-08, No Iterations 3
time step continuity errors : sum local = 1.65056e-07, global = 8.04289e-09, cumulative = 0.016186
smoothSolver:  Solving for omega, Initial residual = 6.33928e-08, Final residual = 7.22639e-09, No Iterations 3
smoothSolver:  Solving for k, Initial residual = 8.98937e-08, Final residual = 6.22395e-09, No Iterations 5
ExecutionTime = 7.26 s  ClockTime = 8 s

scalarTransport execute: age
smoothSolver:  Solving for age, Initial residual = 0.000328212, Final residual = 3.18386e-05, No Iterations 14

Time = 613

smoothSolver:  Solving for Ux, Initial residual = 6.19909e-07, Final residual = 4.02314e-08, No Iterations 5
smoothSolver:  Solving for Uy, Initial residual = 4.38077e-07, Final residual = 3.70618e-08, No Iterations 5
GAMG:  Solving for p, Initial residual = 1.25783e-06, Final residual = 6.85151e-08, No Iterations 3
time step continuity errors : sum local = 1.61615e-07, global = 7.84879e-09, cumulative = 0.016186
smoothSolver:  Solving for omega, Initial residual = 6.20505e-08, Final residual = 7.07882e-09, No Iterations 3
smoothSolver:  Solving for k, Initial residual = 8.81421e-08, Final residual = 6.10295e-09, No Iterations 5
ExecutionTime = 7.27 s  ClockTime = 8 s

scalarTransport execute: age
smoothSolver:  Solving for age, Initial residual = 0.000327643, Final residual = 3.1783e-05, No Iterations 14

Time = 614

smoothSolver:  Solving for Ux, Initial residual = 6.06131e-07, Final residual = 3.93386e-08, No Iterations 5
smoothSolver:  Solving for Uy, Initial residual = 4.28468e-07, Final residual = 3.62709e-08, No Iterations 5
GAMG:  Solving for p, Initial residual = 1.23038e-06, Final residual = 6.70889e-08, No Iterations 3
time step continuity errors : sum local = 1.5825e-07, global = 7.65839e-09, cumulative = 0.016186
smoothSolver:  Solving for omega, Initial residual = 6.07356e-08, Final residual = 6.934e-09, No Iterations 3
smoothSolver:  Solving for k, Initial residual = 8.64245e-08, Final residual = 9.85317e-09, No Iterations 4
ExecutionTime = 7.28 s  ClockTime = 8 s

scalarTransport execute: age
smoothSolver:  Solving for age, Initial residual = 0.000327075, Final residual = 3.17276e-05, No Iterations 14

Time = 615

smoothSolver:  Solving for Ux, Initial residual = 5.93007e-07, Final residual = 3.8504e-08, No Iterations 5
smoothSolver:  Solving for Uy, Initial residual = 4.1885e-07, Final residual = 3.54694e-08, No Iterations 5
GAMG:  Solving for p, Initial residual = 1.20313e-06, Final residual = 1.20279e-07, No Iterations 2
time step continuity errors : sum local = 2.83717e-07, global = 1.38556e-08, cumulative = 0.016186
smoothSolver:  Solving for omega, Initial residual = 6.17524e-08, Final residual = 6.78862e-09, No Iterations 3
smoothSolver:  Solving for k, Initial residual = 8.65308e-08, Final residual = 9.75828e-09, No Iterations 4
ExecutionTime = 7.29 s  ClockTime = 8 s

scalarTransport execute: age
smoothSolver:  Solving for age, Initial residual = 0.000326518, Final residual = 3.16741e-05, No Iterations 14

Time = 616

smoothSolver:  Solving for Ux, Initial residual = 5.97705e-07, Final residual = 3.94882e-08, No Iterations 5
smoothSolver:  Solving for Uy, Initial residual = 4.05855e-07, Final residual = 3.39802e-08, No Iterations 5
GAMG:  Solving for p, Initial residual = 1.23385e-06, Final residual = 7.83233e-08, No Iterations 3
time step continuity errors : sum local = 1.84751e-07, global = 7.20772e-09, cumulative = 0.0161861
smoothSolver:  Solving for omega, Initial residual = 6.27603e-08, Final residual = 6.5707e-09, No Iterations 3
smoothSolver:  Solving for k, Initial residual = 8.39292e-08, Final residual = 9.52416e-09, No Iterations 4
ExecutionTime = 7.31 s  ClockTime = 8 s

scalarTransport execute: age
smoothSolver:  Solving for age, Initial residual = 0.000325945, Final residual = 3.16169e-05, No Iterations 14

Time = 617

smoothSolver:  Solving for Ux, Initial residual = 5.69423e-07, Final residual = 3.64656e-08, No Iterations 5
smoothSolver:  Solving for Uy, Initial residual = 3.93977e-07, Final residual = 3.3458e-08, No Iterations 5
GAMG:  Solving for p, Initial residual = 1.17156e-06, Final residual = 1.06029e-07, No Iterations 2
time step continuity errors : sum local = 2.50103e-07, global = 1.39767e-08, cumulative = 0.0161861
smoothSolver:  Solving for omega, Initial residual = 6.24795e-08, Final residual = 6.56629e-09, No Iterations 3
smoothSolver:  Solving for k, Initial residual = 8.38371e-08, Final residual = 9.42257e-09, No Iterations 4
ExecutionTime = 7.32 s  ClockTime = 8 s

scalarTransport execute: age
smoothSolver:  Solving for age, Initial residual = 0.000325384, Final residual = 3.15636e-05, No Iterations 14

Time = 618

smoothSolver:  Solving for Ux, Initial residual = 5.68777e-07, Final residual = 3.73006e-08, No Iterations 5
smoothSolver:  Solving for Uy, Initial residual = 3.89731e-07, Final residual = 3.26278e-08, No Iterations 5
GAMG:  Solving for p, Initial residual = 1.15646e-06, Final residual = 7.81896e-08, No Iterations 3
time step continuity errors : sum local = 1.84436e-07, global = 5.09874e-09, cumulative = 0.0161861
smoothSolver:  Solving for omega, Initial residual = 6.21008e-08, Final residual = 6.27623e-09, No Iterations 3
smoothSolver:  Solving for k, Initial residual = 8.09226e-08, Final residual = 9.1953e-09, No Iterations 4
ExecutionTime = 7.32 s  ClockTime = 8 s

scalarTransport execute: age
smoothSolver:  Solving for age, Initial residual = 0.000324825, Final residual = 3.15075e-05, No Iterations 14

Time = 619

smoothSolver:  Solving for Ux, Initial residual = 5.38298e-07, Final residual = 3.45725e-08, No Iterations 5
smoothSolver:  Solving for Uy, Initial residual = 3.87283e-07, Final residual = 3.28245e-08, No Iterations 5
GAMG:  Solving for p, Initial residual = 1.13096e-06, Final residual = 1.02154e-07, No Iterations 2
time step continuity errors : sum local = 2.40962e-07, global = 1.16541e-08, cumulative = 0.0161861
smoothSolver:  Solving for omega, Initial residual = 6.0069e-08, Final residual = 6.28468e-09, No Iterations 3
smoothSolver:  Solving for k, Initial residual = 8.09116e-08, Final residual = 9.09968e-09, No Iterations 4
ExecutionTime = 7.33 s  ClockTime = 8 s

scalarTransport execute: age
smoothSolver:  Solving for age, Initial residual = 0.000324268, Final residual = 3.14542e-05, No Iterations 14

Time = 620

smoothSolver:  Solving for Ux, Initial residual = 5.38959e-07, Final residual = 3.53866e-08, No Iterations 5
smoothSolver:  Solving for Uy, Initial residual = 3.79923e-07, Final residual = 3.17545e-08, No Iterations 5
GAMG:  Solving for p, Initial residual = 1.11715e-06, Final residual = 6.998e-08, No Iterations 3
time step continuity errors : sum local = 1.65071e-07, global = 6.61131e-09, cumulative = 0.0161861
smoothSolver:  Solving for omega, Initial residual = 5.82641e-08, Final residual = 6.01993e-09, No Iterations 3
smoothSolver:  Solving for k, Initial residual = 7.81949e-08, Final residual = 8.88249e-09, No Iterations 4
ExecutionTime = 7.34 s  ClockTime = 8 s

scalarTransport execute: age
smoothSolver:  Solving for age, Initial residual = 0.000323707, Final residual = 3.13983e-05, No Iterations 14

Time = 621

smoothSolver:  Solving for Ux, Initial residual = 5.15196e-07, Final residual = 3.29989e-08, No Iterations 5
smoothSolver:  Solving for Uy, Initial residual = 3.7173e-07, Final residual = 3.16532e-08, No Iterations 5
GAMG:  Solving for p, Initial residual = 1.07071e-06, Final residual = 9.84957e-08, No Iterations 2
time step continuity errors : sum local = 2.32334e-07, global = 1.16583e-08, cumulative = 0.0161861
smoothSolver:  Solving for omega, Initial residual = 5.65706e-08, Final residual = 6.01791e-09, No Iterations 3
smoothSolver:  Solving for k, Initial residual = 7.79359e-08, Final residual = 8.78372e-09, No Iterations 4
ExecutionTime = 7.35 s  ClockTime = 8 s

scalarTransport execute: age
smoothSolver:  Solving for age, Initial residual = 0.000323155, Final residual = 3.13454e-05, No Iterations 14

Time = 622

smoothSolver:  Solving for Ux, Initial residual = 5.16308e-07, Final residual = 3.38929e-08, No Iterations 5
smoothSolver:  Solving for Uy, Initial residual = 3.62684e-07, Final residual = 3.04315e-08, No Iterations 5
GAMG:  Solving for p, Initial residual = 1.06459e-06, Final residual = 6.81206e-08, No Iterations 3
time step continuity errors : sum local = 1.60685e-07, global = 6.04692e-09, cumulative = 0.0161861
smoothSolver:  Solving for omega, Initial residual = 5.54955e-08, Final residual = 5.77327e-09, No Iterations 3
smoothSolver:  Solving for k, Initial residual = 7.54168e-08, Final residual = 8.56857e-09, No Iterations 4
ExecutionTime = 7.36 s  ClockTime = 8 s

scalarTransport execute: age
smoothSolver:  Solving for age, Initial residual = 0.000322598, Final residual = 3.12898e-05, No Iterations 14

Time = 623

smoothSolver:  Solving for Ux, Initial residual = 4.93167e-07, Final residual = 3.15809e-08, No Iterations 5
smoothSolver:  Solving for Uy, Initial residual = 3.53715e-07, Final residual = 3.01532e-08, No Iterations 5
GAMG:  Solving for p, Initial residual = 1.02179e-06, Final residual = 9.3669e-08, No Iterations 2
time step continuity errors : sum local = 2.20949e-07, global = 1.08971e-08, cumulative = 0.0161861
smoothSolver:  Solving for omega, Initial residual = 5.40253e-08, Final residual = 5.77425e-09, No Iterations 3
smoothSolver:  Solving for k, Initial residual = 7.51438e-08, Final residual = 8.46994e-09, No Iterations 4
ExecutionTime = 7.39 s  ClockTime = 8 s

scalarTransport execute: age
smoothSolver:  Solving for age, Initial residual = 0.000322049, Final residual = 3.12373e-05, No Iterations 14

Time = 624

smoothSolver:  Solving for Ux, Initial residual = 4.93315e-07, Final residual = 3.24037e-08, No Iterations 5
smoothSolver:  Solving for Uy, Initial residual = 3.46716e-07, Final residual = 2.91367e-08, No Iterations 5
GAMG:  Solving for p, Initial residual = 1.01571e-06, Final residual = 6.48664e-08, No Iterations 3
time step continuity errors : sum local = 1.53009e-07, global = 5.67163e-09, cumulative = 0.0161861
smoothSolver:  Solving for omega, Initial residual = 5.30874e-08, Final residual = 5.54559e-09, No Iterations 3
smoothSolver:  Solving for k, Initial residual = 7.27775e-08, Final residual = 8.26112e-09, No Iterations 4
ExecutionTime = 7.4 s  ClockTime = 8 s

scalarTransport execute: age
smoothSolver:  Solving for age, Initial residual = 0.000321496, Final residual = 3.11822e-05, No Iterations 14

Time = 625

smoothSolver:  Solving for Ux, Initial residual = 4.71259e-07, Final residual = 3.02199e-08, No Iterations 5
smoothSolver:  Solving for Uy, Initial residual = 3.39446e-07, Final residual = 2.89737e-08, No Iterations 5
GAMG:  Solving for p, Initial residual = 9.76884e-07, Final residual = 8.93357e-08, No Iterations 2
time step continuity errors : sum local = 2.10728e-07, global = 1.03044e-08, cumulative = 0.0161861
smoothSolver:  Solving for omega, Initial residual = 5.17931e-08, Final residual = 5.55138e-09, No Iterations 3
smoothSolver:  Solving for k, Initial residual = 7.24797e-08, Final residual = 8.16383e-09, No Iterations 4
ExecutionTime = 7.41 s  ClockTime = 8 s


SIMPLE solution converged in 625 iterations

scalarTransport execute: age
smoothSolver:  Solving for age, Initial residual = 0.00032095, Final residual = 3.113e-05, No Iterations 14

End

