/*---------------------------------------------------------------------------*\
| =========                 |                                                 |
| \\      /  F ield         | OpenFOAM: The Open Source CFD Toolbox           |
|  \\    /   O peration     | Version:  v2012                                 |
|   \\  /    A nd           | Website:  www.openfoam.com                      |
|    \\/     M anipulation  |                                                 |
\*---------------------------------------------------------------------------*/
Build  : _7bdb509494-20201222 OPENFOAM=2012
Arch   : "LSB;label=32;scalar=64"
Exec   : simpleFoam
Date   : Feb 23 2023
Time   : 14:02:38
Host   : johnsDesktop
PID    : 4612
I/O    : uncollated
Case   : /home/john/of_runs/cases/dbl_0_17_1-00860_9
nProcs : 1
trapFpe: Floating point exception trapping enabled (FOAM_SIGFPE).
fileModificationChecking : Monitoring run-time modified files using timeStampMaster (fileModificationSkew 5, maxFileModificationPolls 20)
allowSystemOperations : Allowing user-supplied system call operations

// * * * * * * * * * * * * * * * * * * * * * * * * * * * * * * * * * * * * * //
Create time

Create mesh for time = 0


SIMPLE: convergence criteria
    field p	 tolerance 1e-06
    field U	 tolerance 1e-06
    field "(k|epsilon|omega|f|v2|age)"	 tolerance 1e-05

Reading field p

Reading field U

Reading/calculating face flux field phi

Selecting incompressible transport model Newtonian
Selecting turbulence model type RAS
Selecting RAS turbulence model kOmegaSST
Selecting patchDistMethod meshWave
RAS
{
    RASModel        kOmegaSST;
    turbulence      on;
    printCoeffs     on;
    alphaK1         0.85;
    alphaK2         1;
    alphaOmega1     0.5;
    alphaOmega2     0.856;
    gamma1          0.555556;
    gamma2          0.44;
    beta1           0.075;
    beta2           0.0828;
    betaStar        0.09;
    a1              0.31;
    b1              1;
    c1              10;
    F3              false;
    decayControl    false;
    kInf            0;
    omegaInf        0;
}

No MRF models present

No finite volume options present

Starting time loop

Selecting finite volume options type scalarSemiImplicitSource
    Source: unitySource
    - selecting all cells
    - selected 6598 cell(s) with volume 0.03183
Time = 1

smoothSolver:  Solving for Ux, Initial residual = 0, Final residual = 0, No Iterations 0
smoothSolver:  Solving for Uy, Initial residual = 1, Final residual = 0.0670393, No Iterations 2
GAMG:  Solving for p, Initial residual = 1, Final residual = 0.08996, No Iterations 6
time step continuity errors : sum local = 0.00565253, global = -0.000888562, cumulative = -0.000888562
smoothSolver:  Solving for omega, Initial residual = 0.274572, Final residual = 0.0135151, No Iterations 3
smoothSolver:  Solving for k, Initial residual = 1, Final residual = 0.0836978, No Iterations 3
ExecutionTime = 0.05 s  ClockTime = 0 s

scalarTransport execute: age
smoothSolver:  Solving for age, Initial residual = 1, Final residual = 0.0908098, No Iterations 5

Time = 2

smoothSolver:  Solving for Ux, Initial residual = 0.596415, Final residual = 0.0501731, No Iterations 6
smoothSolver:  Solving for Uy, Initial residual = 0.277451, Final residual = 0.0267737, No Iterations 5
GAMG:  Solving for p, Initial residual = 0.0502534, Final residual = 0.00193001, No Iterations 4
time step continuity errors : sum local = 0.0213428, global = 0.00182704, cumulative = 0.00093848
smoothSolver:  Solving for omega, Initial residual = 0.262373, Final residual = 0.0260532, No Iterations 3
smoothSolver:  Solving for k, Initial residual = 0.621741, Final residual = 0.057784, No Iterations 4
ExecutionTime = 0.07 s  ClockTime = 0 s

scalarTransport execute: age
smoothSolver:  Solving for age, Initial residual = 0.587921, Final residual = 0.0524527, No Iterations 7

Time = 3

smoothSolver:  Solving for Ux, Initial residual = 0.2254, Final residual = 0.0218969, No Iterations 5
smoothSolver:  Solving for Uy, Initial residual = 0.0999961, Final residual = 0.00827084, No Iterations 5
GAMG:  Solving for p, Initial residual = 0.0564901, Final residual = 0.00462019, No Iterations 3
time step continuity errors : sum local = 0.0212924, global = 0.00201944, cumulative = 0.00295792
smoothSolver:  Solving for omega, Initial residual = 0.260803, Final residual = 0.0249226, No Iterations 4
smoothSolver:  Solving for k, Initial residual = 0.523356, Final residual = 0.0387292, No Iterations 5
ExecutionTime = 0.08 s  ClockTime = 0 s

scalarTransport execute: age
smoothSolver:  Solving for age, Initial residual = 0.377537, Final residual = 0.0370291, No Iterations 8

Time = 4

smoothSolver:  Solving for Ux, Initial residual = 0.112592, Final residual = 0.00990008, No Iterations 4
smoothSolver:  Solving for Uy, Initial residual = 0.0488203, Final residual = 0.00332205, No Iterations 5
GAMG:  Solving for p, Initial residual = 0.0751459, Final residual = 0.00387398, No Iterations 3
time step continuity errors : sum local = 0.0109154, global = 0.000449735, cumulative = 0.00340766
smoothSolver:  Solving for omega, Initial residual = 0.153204, Final residual = 0.01054, No Iterations 5
smoothSolver:  Solving for k, Initial residual = 0.452553, Final residual = 0.0377961, No Iterations 5
ExecutionTime = 0.09 s  ClockTime = 0 s

scalarTransport execute: age
smoothSolver:  Solving for age, Initial residual = 0.311344, Final residual = 0.0260758, No Iterations 5

Time = 5

smoothSolver:  Solving for Ux, Initial residual = 0.0720562, Final residual = 0.00572837, No Iterations 5
smoothSolver:  Solving for Uy, Initial residual = 0.0322263, Final residual = 0.00212103, No Iterations 5
GAMG:  Solving for p, Initial residual = 0.0729332, Final residual = 0.0030287, No Iterations 2
time step continuity errors : sum local = 0.00739752, global = 0.000224428, cumulative = 0.00363208
smoothSolver:  Solving for omega, Initial residual = 0.104693, Final residual = 0.00795224, No Iterations 5
smoothSolver:  Solving for k, Initial residual = 0.36666, Final residual = 0.0331181, No Iterations 5
ExecutionTime = 0.1 s  ClockTime = 0 s

scalarTransport execute: age
smoothSolver:  Solving for age, Initial residual = 0.214958, Final residual = 0.0200741, No Iterations 7

Time = 6

smoothSolver:  Solving for Ux, Initial residual = 0.0544381, Final residual = 0.0053718, No Iterations 5
smoothSolver:  Solving for Uy, Initial residual = 0.026389, Final residual = 0.00191212, No Iterations 5
GAMG:  Solving for p, Initial residual = 0.0577744, Final residual = 0.00309491, No Iterations 2
time step continuity errors : sum local = 0.00805825, global = 7.67056e-05, cumulative = 0.00370879
smoothSolver:  Solving for omega, Initial residual = 0.0813655, Final residual = 0.00659597, No Iterations 5
smoothSolver:  Solving for k, Initial residual = 0.292131, Final residual = 0.0279813, No Iterations 5
ExecutionTime = 0.12 s  ClockTime = 0 s

scalarTransport execute: age
smoothSolver:  Solving for age, Initial residual = 0.177116, Final residual = 0.0155442, No Iterations 9

Time = 7

smoothSolver:  Solving for Ux, Initial residual = 0.0475882, Final residual = 0.00316771, No Iterations 6
smoothSolver:  Solving for Uy, Initial residual = 0.0231307, Final residual = 0.00177867, No Iterations 5
GAMG:  Solving for p, Initial residual = 0.0480869, Final residual = 0.00364053, No Iterations 2
time step continuity errors : sum local = 0.00962916, global = -0.000418255, cumulative = 0.00329053
smoothSolver:  Solving for omega, Initial residual = 0.0626341, Final residual = 0.00540924, No Iterations 5
smoothSolver:  Solving for k, Initial residual = 0.240846, Final residual = 0.0240643, No Iterations 5
ExecutionTime = 0.13 s  ClockTime = 0 s

scalarTransport execute: age
smoothSolver:  Solving for age, Initial residual = 0.141524, Final residual = 0.013853, No Iterations 10

Time = 8

smoothSolver:  Solving for Ux, Initial residual = 0.0399222, Final residual = 0.00381483, No Iterations 5
smoothSolver:  Solving for Uy, Initial residual = 0.0211283, Final residual = 0.0017301, No Iterations 5
GAMG:  Solving for p, Initial residual = 0.0400072, Final residual = 0.00294986, No Iterations 2
time step continuity errors : sum local = 0.00815669, global = -0.000678301, cumulative = 0.00261223
smoothSolver:  Solving for omega, Initial residual = 0.0498247, Final residual = 0.00447958, No Iterations 5
smoothSolver:  Solving for k, Initial residual = 0.204233, Final residual = 0.0134111, No Iterations 6
ExecutionTime = 0.14 s  ClockTime = 0 s

scalarTransport execute: age
smoothSolver:  Solving for age, Initial residual = 0.121626, Final residual = 0.0117863, No Iterations 11

Time = 9

smoothSolver:  Solving for Ux, Initial residual = 0.0359453, Final residual = 0.0033952, No Iterations 5
smoothSolver:  Solving for Uy, Initial residual = 0.0199209, Final residual = 0.00166672, No Iterations 5
GAMG:  Solving for p, Initial residual = 0.0339397, Final residual = 0.0018989, No Iterations 2
time step continuity errors : sum local = 0.00547083, global = -0.000616381, cumulative = 0.00199585
smoothSolver:  Solving for omega, Initial residual = 0.0410494, Final residual = 0.00379409, No Iterations 5
smoothSolver:  Solving for k, Initial residual = 0.176965, Final residual = 0.0119741, No Iterations 6
ExecutionTime = 0.16 s  ClockTime = 0 s

scalarTransport execute: age
smoothSolver:  Solving for age, Initial residual = 0.108614, Final residual = 0.0100279, No Iterations 12

Time = 10

smoothSolver:  Solving for Ux, Initial residual = 0.0344865, Final residual = 0.00338221, No Iterations 5
smoothSolver:  Solving for Uy, Initial residual = 0.0191078, Final residual = 0.00162779, No Iterations 5
GAMG:  Solving for p, Initial residual = 0.0294024, Final residual = 0.000831602, No Iterations 2
time step continuity errors : sum local = 0.00245186, global = -0.000545831, cumulative = 0.00145002
smoothSolver:  Solving for omega, Initial residual = 0.0342268, Final residual = 0.00324868, No Iterations 5
smoothSolver:  Solving for k, Initial residual = 0.155549, Final residual = 0.0107895, No Iterations 6
ExecutionTime = 0.17 s  ClockTime = 0 s

scalarTransport execute: age
smoothSolver:  Solving for age, Initial residual = 0.099049, Final residual = 0.0094978, No Iterations 12

Time = 11

smoothSolver:  Solving for Ux, Initial residual = 0.0318274, Final residual = 0.0020948, No Iterations 6
smoothSolver:  Solving for Uy, Initial residual = 0.0183798, Final residual = 0.00163326, No Iterations 5
GAMG:  Solving for p, Initial residual = 0.0266111, Final residual = 0.000874885, No Iterations 2
time step continuity errors : sum local = 0.00257727, global = -0.000432474, cumulative = 0.00101755
smoothSolver:  Solving for omega, Initial residual = 0.0288874, Final residual = 0.00279794, No Iterations 5
smoothSolver:  Solving for k, Initial residual = 0.138385, Final residual = 0.00979419, No Iterations 6
ExecutionTime = 0.18 s  ClockTime = 0 s

scalarTransport execute: age
smoothSolver:  Solving for age, Initial residual = 0.0891535, Final residual = 0.00881479, No Iterations 12

Time = 12

smoothSolver:  Solving for Ux, Initial residual = 0.0298521, Final residual = 0.00199382, No Iterations 6
smoothSolver:  Solving for Uy, Initial residual = 0.0178418, Final residual = 0.00163734, No Iterations 5
GAMG:  Solving for p, Initial residual = 0.0247104, Final residual = 0.000895334, No Iterations 2
time step continuity errors : sum local = 0.00263436, global = -0.000302702, cumulative = 0.000714845
smoothSolver:  Solving for omega, Initial residual = 0.0246657, Final residual = 0.0024299, No Iterations 5
smoothSolver:  Solving for k, Initial residual = 0.124393, Final residual = 0.00895275, No Iterations 6
ExecutionTime = 0.19 s  ClockTime = 0 s

scalarTransport execute: age
smoothSolver:  Solving for age, Initial residual = 0.0800451, Final residual = 0.00693554, No Iterations 13

Time = 13

smoothSolver:  Solving for Ux, Initial residual = 0.0285261, Final residual = 0.00191973, No Iterations 6
smoothSolver:  Solving for Uy, Initial residual = 0.0174514, Final residual = 0.00163781, No Iterations 5
GAMG:  Solving for p, Initial residual = 0.023327, Final residual = 0.00087516, No Iterations 2
time step continuity errors : sum local = 0.00256034, global = -0.000148721, cumulative = 0.000566125
smoothSolver:  Solving for omega, Initial residual = 0.0213068, Final residual = 0.00212709, No Iterations 5
smoothSolver:  Solving for k, Initial residual = 0.112762, Final residual = 0.00823095, No Iterations 6
ExecutionTime = 0.21 s  ClockTime = 0 s

scalarTransport execute: age
smoothSolver:  Solving for age, Initial residual = 0.0715019, Final residual = 0.00616155, No Iterations 13

Time = 14

smoothSolver:  Solving for Ux, Initial residual = 0.0274836, Final residual = 0.00185626, No Iterations 6
smoothSolver:  Solving for Uy, Initial residual = 0.0171222, Final residual = 0.00163261, No Iterations 5
GAMG:  Solving for p, Initial residual = 0.0222254, Final residual = 0.000853055, No Iterations 2
time step continuity errors : sum local = 0.0024819, global = 6.75354e-06, cumulative = 0.000572878
smoothSolver:  Solving for omega, Initial residual = 0.0185792, Final residual = 0.00119897, No Iterations 6
smoothSolver:  Solving for k, Initial residual = 0.102695, Final residual = 0.00758952, No Iterations 6
ExecutionTime = 0.22 s  ClockTime = 0 s

scalarTransport execute: age
smoothSolver:  Solving for age, Initial residual = 0.0625085, Final residual = 0.00612801, No Iterations 12

Time = 15

smoothSolver:  Solving for Ux, Initial residual = 0.0264944, Final residual = 0.00179545, No Iterations 6
smoothSolver:  Solving for Uy, Initial residual = 0.0167822, Final residual = 0.00161512, No Iterations 5
GAMG:  Solving for p, Initial residual = 0.0213268, Final residual = 0.00082931, No Iterations 2
time step continuity errors : sum local = 0.00239755, global = 0.00014374, cumulative = 0.000716618
smoothSolver:  Solving for omega, Initial residual = 0.0161916, Final residual = 0.0010576, No Iterations 6
smoothSolver:  Solving for k, Initial residual = 0.0939813, Final residual = 0.00702245, No Iterations 6
ExecutionTime = 0.23 s  ClockTime = 0 s

scalarTransport execute: age
smoothSolver:  Solving for age, Initial residual = 0.0540287, Final residual = 0.00520052, No Iterations 12

Time = 16

smoothSolver:  Solving for Ux, Initial residual = 0.025656, Final residual = 0.00174261, No Iterations 6
smoothSolver:  Solving for Uy, Initial residual = 0.0164668, Final residual = 0.00158905, No Iterations 5
GAMG:  Solving for p, Initial residual = 0.0204865, Final residual = 0.000794507, No Iterations 2
time step continuity errors : sum local = 0.00227999, global = 0.000258502, cumulative = 0.00097512
smoothSolver:  Solving for omega, Initial residual = 0.0142677, Final residual = 0.000938838, No Iterations 6
smoothSolver:  Solving for k, Initial residual = 0.0865467, Final residual = 0.00652667, No Iterations 6
ExecutionTime = 0.25 s  ClockTime = 0 s

scalarTransport execute: age
smoothSolver:  Solving for age, Initial residual = 0.0461753, Final residual = 0.0043452, No Iterations 12

Time = 17

smoothSolver:  Solving for Ux, Initial residual = 0.02492, Final residual = 0.00169807, No Iterations 6
smoothSolver:  Solving for Uy, Initial residual = 0.0161308, Final residual = 0.00155709, No Iterations 5
GAMG:  Solving for p, Initial residual = 0.0197634, Final residual = 0.000758926, No Iterations 2
time step continuity errors : sum local = 0.0021602, global = 0.000346783, cumulative = 0.0013219
smoothSolver:  Solving for omega, Initial residual = 0.0126507, Final residual = 0.000838966, No Iterations 6
smoothSolver:  Solving for k, Initial residual = 0.0801081, Final residual = 0.00608898, No Iterations 6
ExecutionTime = 0.26 s  ClockTime = 0 s

scalarTransport execute: age
smoothSolver:  Solving for age, Initial residual = 0.0392974, Final residual = 0.00366863, No Iterations 12

Time = 18

smoothSolver:  Solving for Ux, Initial residual = 0.0242646, Final residual = 0.00166038, No Iterations 6
smoothSolver:  Solving for Uy, Initial residual = 0.0157379, Final residual = 0.00152086, No Iterations 5
GAMG:  Solving for p, Initial residual = 0.0190667, Final residual = 0.000734784, No Iterations 2
time step continuity errors : sum local = 0.00207395, global = 0.000404105, cumulative = 0.00172601
smoothSolver:  Solving for omega, Initial residual = 0.0113071, Final residual = 0.00075416, No Iterations 6
smoothSolver:  Solving for k, Initial residual = 0.074472, Final residual = 0.00569863, No Iterations 6
ExecutionTime = 0.27 s  ClockTime = 0 s

scalarTransport execute: age
smoothSolver:  Solving for age, Initial residual = 0.0337536, Final residual = 0.00322127, No Iterations 12

Time = 19

smoothSolver:  Solving for Ux, Initial residual = 0.0236911, Final residual = 0.00162817, No Iterations 6
smoothSolver:  Solving for Uy, Initial residual = 0.0153503, Final residual = 0.00148165, No Iterations 5
GAMG:  Solving for p, Initial residual = 0.0183197, Final residual = 0.000713801, No Iterations 2
time step continuity errors : sum local = 0.00199949, global = 0.000428625, cumulative = 0.00215463
smoothSolver:  Solving for omega, Initial residual = 0.0101759, Final residual = 0.000681242, No Iterations 6
smoothSolver:  Solving for k, Initial residual = 0.0695115, Final residual = 0.0053498, No Iterations 6
ExecutionTime = 0.29 s  ClockTime = 0 s

scalarTransport execute: age
smoothSolver:  Solving for age, Initial residual = 0.0294455, Final residual = 0.0028206, No Iterations 12

Time = 20

smoothSolver:  Solving for Ux, Initial residual = 0.0231841, Final residual = 0.00159979, No Iterations 6
smoothSolver:  Solving for Uy, Initial residual = 0.014885, Final residual = 0.00144062, No Iterations 5
GAMG:  Solving for p, Initial residual = 0.0175117, Final residual = 0.000690038, No Iterations 2
time step continuity errors : sum local = 0.00191703, global = 0.000422427, cumulative = 0.00257706
smoothSolver:  Solving for omega, Initial residual = 0.00920461, Final residual = 0.000618464, No Iterations 6
smoothSolver:  Solving for k, Initial residual = 0.0651069, Final residual = 0.00503603, No Iterations 6
ExecutionTime = 0.3 s  ClockTime = 0 s

scalarTransport execute: age
smoothSolver:  Solving for age, Initial residual = 0.0262314, Final residual = 0.00234637, No Iterations 12

Time = 21

smoothSolver:  Solving for Ux, Initial residual = 0.0227416, Final residual = 0.00157499, No Iterations 6
smoothSolver:  Solving for Uy, Initial residual = 0.0143976, Final residual = 0.00139934, No Iterations 5
GAMG:  Solving for p, Initial residual = 0.0166878, Final residual = 0.000659787, No Iterations 2
time step continuity errors : sum local = 0.00181763, global = 0.000397683, cumulative = 0.00297474
smoothSolver:  Solving for omega, Initial residual = 0.00837252, Final residual = 0.000563966, No Iterations 6
smoothSolver:  Solving for k, Initial residual = 0.0611761, Final residual = 0.00475256, No Iterations 6
ExecutionTime = 0.31 s  ClockTime = 0 s

scalarTransport execute: age
smoothSolver:  Solving for age, Initial residual = 0.0234348, Final residual = 0.00223123, No Iterations 11

Time = 22

smoothSolver:  Solving for Ux, Initial residual = 0.0223462, Final residual = 0.00155443, No Iterations 6
smoothSolver:  Solving for Uy, Initial residual = 0.0139284, Final residual = 0.00135988, No Iterations 5
GAMG:  Solving for p, Initial residual = 0.0158781, Final residual = 0.000625687, No Iterations 2
time step continuity errors : sum local = 0.0017103, global = 0.000364019, cumulative = 0.00333876
smoothSolver:  Solving for omega, Initial residual = 0.00764133, Final residual = 0.000516116, No Iterations 6
smoothSolver:  Solving for k, Initial residual = 0.0576426, Final residual = 0.0044951, No Iterations 6
ExecutionTime = 0.33 s  ClockTime = 0 s

scalarTransport execute: age
smoothSolver:  Solving for age, Initial residual = 0.0208724, Final residual = 0.00179284, No Iterations 11

Time = 23

smoothSolver:  Solving for Ux, Initial residual = 0.0219773, Final residual = 0.00153812, No Iterations 6
smoothSolver:  Solving for Uy, Initial residual = 0.0135168, Final residual = 0.00132159, No Iterations 5
GAMG:  Solving for p, Initial residual = 0.0152323, Final residual = 0.000591286, No Iterations 2
time step continuity errors : sum local = 0.00160332, global = 0.000327645, cumulative = 0.00366641
smoothSolver:  Solving for omega, Initial residual = 0.00701113, Final residual = 0.000474149, No Iterations 6
smoothSolver:  Solving for k, Initial residual = 0.0544492, Final residual = 0.00426016, No Iterations 6
ExecutionTime = 0.34 s  ClockTime = 0 s

scalarTransport execute: age
smoothSolver:  Solving for age, Initial residual = 0.0186748, Final residual = 0.00173534, No Iterations 10

Time = 24

smoothSolver:  Solving for Ux, Initial residual = 0.0216585, Final residual = 0.0015259, No Iterations 6
smoothSolver:  Solving for Uy, Initial residual = 0.0131197, Final residual = 0.00128371, No Iterations 5
GAMG:  Solving for p, Initial residual = 0.014979, Final residual = 0.000561993, No Iterations 2
time step continuity errors : sum local = 0.00151388, global = 0.000291597, cumulative = 0.00395801
smoothSolver:  Solving for omega, Initial residual = 0.0064598, Final residual = 0.000437117, No Iterations 6
smoothSolver:  Solving for k, Initial residual = 0.0515446, Final residual = 0.00404478, No Iterations 6
ExecutionTime = 0.35 s  ClockTime = 0 s

scalarTransport execute: age
smoothSolver:  Solving for age, Initial residual = 0.016967, Final residual = 0.00151614, No Iterations 10

Time = 25

smoothSolver:  Solving for Ux, Initial residual = 0.0213927, Final residual = 0.00151732, No Iterations 6
smoothSolver:  Solving for Uy, Initial residual = 0.012775, Final residual = 0.00124675, No Iterations 5
GAMG:  Solving for p, Initial residual = 0.0149692, Final residual = 0.000541417, No Iterations 2
time step continuity errors : sum local = 0.00145242, global = 0.000258927, cumulative = 0.00421693
smoothSolver:  Solving for omega, Initial residual = 0.00597804, Final residual = 0.000404152, No Iterations 6
smoothSolver:  Solving for k, Initial residual = 0.0488876, Final residual = 0.00384616, No Iterations 6
ExecutionTime = 0.36 s  ClockTime = 0 s

scalarTransport execute: age
smoothSolver:  Solving for age, Initial residual = 0.0158548, Final residual = 0.00137161, No Iterations 10

Time = 26

smoothSolver:  Solving for Ux, Initial residual = 0.0212235, Final residual = 0.00151146, No Iterations 6
smoothSolver:  Solving for Uy, Initial residual = 0.0124362, Final residual = 0.00120848, No Iterations 5
GAMG:  Solving for p, Initial residual = 0.0149311, Final residual = 0.000531755, No Iterations 2
time step continuity errors : sum local = 0.00141993, global = 0.00023004, cumulative = 0.00444697
smoothSolver:  Solving for omega, Initial residual = 0.00555199, Final residual = 0.000374576, No Iterations 6
smoothSolver:  Solving for k, Initial residual = 0.0464461, Final residual = 0.00366265, No Iterations 6
ExecutionTime = 0.38 s  ClockTime = 0 s

scalarTransport execute: age
smoothSolver:  Solving for age, Initial residual = 0.0150761, Final residual = 0.00128329, No Iterations 10

Time = 27

smoothSolver:  Solving for Ux, Initial residual = 0.0211483, Final residual = 0.00150785, No Iterations 6
smoothSolver:  Solving for Uy, Initial residual = 0.0120903, Final residual = 0.00116962, No Iterations 5
GAMG:  Solving for p, Initial residual = 0.0147902, Final residual = 0.000537936, No Iterations 2
time step continuity errors : sum local = 0.00142909, global = 0.000206803, cumulative = 0.00465377
smoothSolver:  Solving for omega, Initial residual = 0.005171, Final residual = 0.000347972, No Iterations 6
smoothSolver:  Solving for k, Initial residual = 0.0441957, Final residual = 0.00349241, No Iterations 6
ExecutionTime = 0.39 s  ClockTime = 0 s

scalarTransport execute: age
smoothSolver:  Solving for age, Initial residual = 0.0145745, Final residual = 0.00144295, No Iterations 9

Time = 28

smoothSolver:  Solving for Ux, Initial residual = 0.0211259, Final residual = 0.00150572, No Iterations 6
smoothSolver:  Solving for Uy, Initial residual = 0.0117113, Final residual = 0.00112886, No Iterations 5
GAMG:  Solving for p, Initial residual = 0.0145936, Final residual = 0.000540681, No Iterations 2
time step continuity errors : sum local = 0.00143248, global = 0.000188947, cumulative = 0.00484272
smoothSolver:  Solving for omega, Initial residual = 0.00482813, Final residual = 0.000323902, No Iterations 6
smoothSolver:  Solving for k, Initial residual = 0.0421104, Final residual = 0.00333419, No Iterations 6
ExecutionTime = 0.4 s  ClockTime = 0 s

scalarTransport execute: age
smoothSolver:  Solving for age, Initial residual = 0.0143448, Final residual = 0.0014154, No Iterations 9

Time = 29

smoothSolver:  Solving for Ux, Initial residual = 0.0211255, Final residual = 0.00150479, No Iterations 6
smoothSolver:  Solving for Uy, Initial residual = 0.0113072, Final residual = 0.00108624, No Iterations 5
GAMG:  Solving for p, Initial residual = 0.0142874, Final residual = 0.00053689, No Iterations 2
time step continuity errors : sum local = 0.00141994, global = 0.000176002, cumulative = 0.00501872
smoothSolver:  Solving for omega, Initial residual = 0.00451731, Final residual = 0.000302086, No Iterations 6
smoothSolver:  Solving for k, Initial residual = 0.0401761, Final residual = 0.00318693, No Iterations 6
ExecutionTime = 0.42 s  ClockTime = 0 s

scalarTransport execute: age
smoothSolver:  Solving for age, Initial residual = 0.0143259, Final residual = 0.00142245, No Iterations 9

Time = 30

smoothSolver:  Solving for Ux, Initial residual = 0.0211504, Final residual = 0.00150493, No Iterations 6
smoothSolver:  Solving for Uy, Initial residual = 0.0108642, Final residual = 0.00104242, No Iterations 5
GAMG:  Solving for p, Initial residual = 0.0137223, Final residual = 0.000525284, No Iterations 2
time step continuity errors : sum local = 0.00138745, global = 0.000165614, cumulative = 0.00518434
smoothSolver:  Solving for omega, Initial residual = 0.00423751, Final residual = 0.000282244, No Iterations 6
smoothSolver:  Solving for k, Initial residual = 0.0383743, Final residual = 0.00304962, No Iterations 6
ExecutionTime = 0.43 s  ClockTime = 0 s

scalarTransport execute: age
smoothSolver:  Solving for age, Initial residual = 0.0143829, Final residual = 0.00125514, No Iterations 10

Time = 31

smoothSolver:  Solving for Ux, Initial residual = 0.0211722, Final residual = 0.00150598, No Iterations 6
smoothSolver:  Solving for Uy, Initial residual = 0.0104037, Final residual = 0.000999231, No Iterations 5
GAMG:  Solving for p, Initial residual = 0.0131318, Final residual = 0.000506388, No Iterations 2
time step continuity errors : sum local = 0.00133692, global = 0.000156985, cumulative = 0.00534132
smoothSolver:  Solving for omega, Initial residual = 0.00398315, Final residual = 0.000264093, No Iterations 6
smoothSolver:  Solving for k, Initial residual = 0.0366929, Final residual = 0.00292149, No Iterations 6
ExecutionTime = 0.44 s  ClockTime = 0 s

scalarTransport execute: age
smoothSolver:  Solving for age, Initial residual = 0.01458, Final residual = 0.00131376, No Iterations 10

Time = 32

smoothSolver:  Solving for Ux, Initial residual = 0.0211684, Final residual = 0.00150737, No Iterations 6
smoothSolver:  Solving for Uy, Initial residual = 0.00994149, Final residual = 0.000957836, No Iterations 5
GAMG:  Solving for p, Initial residual = 0.0125343, Final residual = 0.000483448, No Iterations 2
time step continuity errors : sum local = 0.00127669, global = 0.000146052, cumulative = 0.00548738
smoothSolver:  Solving for omega, Initial residual = 0.00375416, Final residual = 0.000247371, No Iterations 6
smoothSolver:  Solving for k, Initial residual = 0.0351234, Final residual = 0.00280195, No Iterations 6
ExecutionTime = 0.47 s  ClockTime = 0 s

scalarTransport execute: age
smoothSolver:  Solving for age, Initial residual = 0.0148812, Final residual = 0.00139838, No Iterations 10

Time = 33

smoothSolver:  Solving for Ux, Initial residual = 0.0211397, Final residual = 0.0015087, No Iterations 6
smoothSolver:  Solving for Uy, Initial residual = 0.00951136, Final residual = 0.000920536, No Iterations 5
GAMG:  Solving for p, Initial residual = 0.0120683, Final residual = 0.000469912, No Iterations 2
time step continuity errors : sum local = 0.0012403, global = 0.00013726, cumulative = 0.00562464
smoothSolver:  Solving for omega, Initial residual = 0.00354074, Final residual = 0.000232024, No Iterations 6
smoothSolver:  Solving for k, Initial residual = 0.0336601, Final residual = 0.00269041, No Iterations 6
ExecutionTime = 0.48 s  ClockTime = 0 s

scalarTransport execute: age
smoothSolver:  Solving for age, Initial residual = 0.0153208, Final residual = 0.00149311, No Iterations 10

Time = 34

smoothSolver:  Solving for Ux, Initial residual = 0.0210717, Final residual = 0.0015077, No Iterations 6
smoothSolver:  Solving for Uy, Initial residual = 0.00914216, Final residual = 0.000887176, No Iterations 5
GAMG:  Solving for p, Initial residual = 0.0118399, Final residual = 0.000473255, No Iterations 2
time step continuity errors : sum local = 0.00124697, global = 0.000130026, cumulative = 0.00575466
smoothSolver:  Solving for omega, Initial residual = 0.00334461, Final residual = 0.000217862, No Iterations 6
smoothSolver:  Solving for k, Initial residual = 0.0322971, Final residual = 0.0025864, No Iterations 6
ExecutionTime = 0.49 s  ClockTime = 0 s

scalarTransport execute: age
smoothSolver:  Solving for age, Initial residual = 0.0157222, Final residual = 0.00137062, No Iterations 11

Time = 35

smoothSolver:  Solving for Ux, Initial residual = 0.0210055, Final residual = 0.00150427, No Iterations 6
smoothSolver:  Solving for Uy, Initial residual = 0.00881905, Final residual = 0.000858425, No Iterations 5
GAMG:  Solving for p, Initial residual = 0.0116519, Final residual = 0.000491667, No Iterations 2
time step continuity errors : sum local = 0.00129197, global = 0.000124092, cumulative = 0.00587875
smoothSolver:  Solving for omega, Initial residual = 0.00316359, Final residual = 0.000315572, No Iterations 5
smoothSolver:  Solving for k, Initial residual = 0.0310554, Final residual = 0.00249116, No Iterations 6
ExecutionTime = 0.5 s  ClockTime = 0 s

scalarTransport execute: age
smoothSolver:  Solving for age, Initial residual = 0.0161492, Final residual = 0.00143326, No Iterations 11

Time = 36

smoothSolver:  Solving for Ux, Initial residual = 0.0209457, Final residual = 0.00149878, No Iterations 6
smoothSolver:  Solving for Uy, Initial residual = 0.00853282, Final residual = 0.000834704, No Iterations 5
GAMG:  Solving for p, Initial residual = 0.0114432, Final residual = 0.000512843, No Iterations 2
time step continuity errors : sum local = 0.00134559, global = 0.000121398, cumulative = 0.00600015
smoothSolver:  Solving for omega, Initial residual = 0.00301179, Final residual = 0.000298249, No Iterations 5
smoothSolver:  Solving for k, Initial residual = 0.0299158, Final residual = 0.00240315, No Iterations 6
ExecutionTime = 0.52 s  ClockTime = 0 s

scalarTransport execute: age
smoothSolver:  Solving for age, Initial residual = 0.0164163, Final residual = 0.0014978, No Iterations 11

Time = 37

smoothSolver:  Solving for Ux, Initial residual = 0.0208695, Final residual = 0.00149083, No Iterations 6
smoothSolver:  Solving for Uy, Initial residual = 0.0082906, Final residual = 0.000815856, No Iterations 5
GAMG:  Solving for p, Initial residual = 0.011203, Final residual = 0.000537417, No Iterations 2
time step continuity errors : sum local = 0.00140713, global = 0.000123892, cumulative = 0.00612404
smoothSolver:  Solving for omega, Initial residual = 0.00287033, Final residual = 0.000282038, No Iterations 5
smoothSolver:  Solving for k, Initial residual = 0.0288498, Final residual = 0.00232035, No Iterations 6
ExecutionTime = 0.53 s  ClockTime = 0 s

scalarTransport execute: age
smoothSolver:  Solving for age, Initial residual = 0.0166642, Final residual = 0.00156297, No Iterations 11

Time = 38

smoothSolver:  Solving for Ux, Initial residual = 0.0207634, Final residual = 0.00147988, No Iterations 6
smoothSolver:  Solving for Uy, Initial residual = 0.00810274, Final residual = 0.00080252, No Iterations 5
GAMG:  Solving for p, Initial residual = 0.0110314, Final residual = 0.000567447, No Iterations 2
time step continuity errors : sum local = 0.00148448, global = 0.000129541, cumulative = 0.00625358
smoothSolver:  Solving for omega, Initial residual = 0.00273576, Final residual = 0.000266824, No Iterations 5
smoothSolver:  Solving for k, Initial residual = 0.0278541, Final residual = 0.00224248, No Iterations 6
ExecutionTime = 0.54 s  ClockTime = 0 s

scalarTransport execute: age
smoothSolver:  Solving for age, Initial residual = 0.0168594, Final residual = 0.00161464, No Iterations 11

Time = 39

smoothSolver:  Solving for Ux, Initial residual = 0.0206167, Final residual = 0.00146678, No Iterations 6
smoothSolver:  Solving for Uy, Initial residual = 0.00797392, Final residual = 0.000794595, No Iterations 5
GAMG:  Solving for p, Initial residual = 0.0109659, Final residual = 0.000597024, No Iterations 2
time step continuity errors : sum local = 0.00156138, global = 0.00013677, cumulative = 0.00639035
smoothSolver:  Solving for omega, Initial residual = 0.00261419, Final residual = 0.000252543, No Iterations 5
smoothSolver:  Solving for k, Initial residual = 0.0269249, Final residual = 0.00216909, No Iterations 6
ExecutionTime = 0.56 s  ClockTime = 0 s

scalarTransport execute: age
smoothSolver:  Solving for age, Initial residual = 0.0170399, Final residual = 0.00164678, No Iterations 11

Time = 40

smoothSolver:  Solving for Ux, Initial residual = 0.0204491, Final residual = 0.00145286, No Iterations 6
smoothSolver:  Solving for Uy, Initial residual = 0.00788861, Final residual = 0.000515803, No Iterations 6
GAMG:  Solving for p, Initial residual = 0.0109418, Final residual = 0.000618058, No Iterations 2
time step continuity errors : sum local = 0.0016163, global = 0.000145896, cumulative = 0.00653625
smoothSolver:  Solving for omega, Initial residual = 0.00250023, Final residual = 0.000239083, No Iterations 5
smoothSolver:  Solving for k, Initial residual = 0.0260585, Final residual = 0.00210009, No Iterations 6
ExecutionTime = 0.57 s  ClockTime = 0 s

scalarTransport execute: age
smoothSolver:  Solving for age, Initial residual = 0.0171445, Final residual = 0.00166117, No Iterations 11

Time = 41

smoothSolver:  Solving for Ux, Initial residual = 0.0202881, Final residual = 0.00143911, No Iterations 6
smoothSolver:  Solving for Uy, Initial residual = 0.00775613, Final residual = 0.000511743, No Iterations 6
GAMG:  Solving for p, Initial residual = 0.0107469, Final residual = 0.000631372, No Iterations 2
time step continuity errors : sum local = 0.00164742, global = 0.000155589, cumulative = 0.00669184
smoothSolver:  Solving for omega, Initial residual = 0.00239582, Final residual = 0.000226397, No Iterations 5
smoothSolver:  Solving for k, Initial residual = 0.0252492, Final residual = 0.00203513, No Iterations 6
ExecutionTime = 0.58 s  ClockTime = 0 s

scalarTransport execute: age
smoothSolver:  Solving for age, Initial residual = 0.0171053, Final residual = 0.00164949, No Iterations 11

Time = 42

smoothSolver:  Solving for Ux, Initial residual = 0.0200952, Final residual = 0.00142486, No Iterations 6
smoothSolver:  Solving for Uy, Initial residual = 0.00769119, Final residual = 0.000512479, No Iterations 6
GAMG:  Solving for p, Initial residual = 0.0105956, Final residual = 0.000646742, No Iterations 2
time step continuity errors : sum local = 0.00168339, global = 0.000164675, cumulative = 0.00685651
smoothSolver:  Solving for omega, Initial residual = 0.00229384, Final residual = 0.00021457, No Iterations 5
smoothSolver:  Solving for k, Initial residual = 0.0244888, Final residual = 0.00197379, No Iterations 6
ExecutionTime = 0.59 s  ClockTime = 0 s

scalarTransport execute: age
smoothSolver:  Solving for age, Initial residual = 0.016917, Final residual = 0.00164478, No Iterations 11

Time = 43

smoothSolver:  Solving for Ux, Initial residual = 0.0198954, Final residual = 0.00141091, No Iterations 6
smoothSolver:  Solving for Uy, Initial residual = 0.00769228, Final residual = 0.000518519, No Iterations 6
GAMG:  Solving for p, Initial residual = 0.0104373, Final residual = 0.000661051, No Iterations 2
time step continuity errors : sum local = 0.00171682, global = 0.000171984, cumulative = 0.0070285
smoothSolver:  Solving for omega, Initial residual = 0.00219368, Final residual = 0.000203566, No Iterations 5
smoothSolver:  Solving for k, Initial residual = 0.02377, Final residual = 0.00191572, No Iterations 6
ExecutionTime = 0.61 s  ClockTime = 0 s

scalarTransport execute: age
smoothSolver:  Solving for age, Initial residual = 0.0167551, Final residual = 0.00166981, No Iterations 11

Time = 44

smoothSolver:  Solving for Ux, Initial residual = 0.0196807, Final residual = 0.00139682, No Iterations 6
smoothSolver:  Solving for Uy, Initial residual = 0.00774681, Final residual = 0.000529004, No Iterations 6
GAMG:  Solving for p, Initial residual = 0.0102602, Final residual = 0.000677045, No Iterations 2
time step continuity errors : sum local = 0.00175439, global = 0.000177435, cumulative = 0.00720593
smoothSolver:  Solving for omega, Initial residual = 0.00209387, Final residual = 0.000193326, No Iterations 5
smoothSolver:  Solving for k, Initial residual = 0.0230916, Final residual = 0.0018608, No Iterations 6
ExecutionTime = 0.62 s  ClockTime = 0 s

scalarTransport execute: age
smoothSolver:  Solving for age, Initial residual = 0.0167455, Final residual = 0.00151054, No Iterations 12

Time = 45

smoothSolver:  Solving for Ux, Initial residual = 0.0194495, Final residual = 0.00138231, No Iterations 6
smoothSolver:  Solving for Uy, Initial residual = 0.00783976, Final residual = 0.000542527, No Iterations 6
GAMG:  Solving for p, Initial residual = 0.0100888, Final residual = 0.000689368, No Iterations 2
time step continuity errors : sum local = 0.00178307, global = 0.000180496, cumulative = 0.00738643
smoothSolver:  Solving for omega, Initial residual = 0.0020056, Final residual = 0.00018378, No Iterations 5
smoothSolver:  Solving for k, Initial residual = 0.0224512, Final residual = 0.00180875, No Iterations 6
ExecutionTime = 0.63 s  ClockTime = 0 s

scalarTransport execute: age
smoothSolver:  Solving for age, Initial residual = 0.0166777, Final residual = 0.00155532, No Iterations 12

Time = 46

smoothSolver:  Solving for Ux, Initial residual = 0.0192177, Final residual = 0.00136765, No Iterations 6
smoothSolver:  Solving for Uy, Initial residual = 0.0079543, Final residual = 0.000557964, No Iterations 6
GAMG:  Solving for p, Initial residual = 0.00989967, Final residual = 0.00070367, No Iterations 2
time step continuity errors : sum local = 0.00181663, global = 0.000182966, cumulative = 0.0075694
smoothSolver:  Solving for omega, Initial residual = 0.00192011, Final residual = 0.000174752, No Iterations 5
smoothSolver:  Solving for k, Initial residual = 0.0218468, Final residual = 0.00175931, No Iterations 6
ExecutionTime = 0.65 s  ClockTime = 1 s

scalarTransport execute: age
smoothSolver:  Solving for age, Initial residual = 0.0167561, Final residual = 0.00160213, No Iterations 12

Time = 47

smoothSolver:  Solving for Ux, Initial residual = 0.0189543, Final residual = 0.0013518, No Iterations 6
smoothSolver:  Solving for Uy, Initial residual = 0.00808771, Final residual = 0.000574394, No Iterations 6
GAMG:  Solving for p, Initial residual = 0.00969726, Final residual = 0.000717105, No Iterations 2
time step continuity errors : sum local = 0.00184862, global = 0.000184787, cumulative = 0.00775418
smoothSolver:  Solving for omega, Initial residual = 0.00184345, Final residual = 0.000166167, No Iterations 5
smoothSolver:  Solving for k, Initial residual = 0.0212779, Final residual = 0.00171247, No Iterations 6
ExecutionTime = 0.66 s  ClockTime = 1 s

scalarTransport execute: age
smoothSolver:  Solving for age, Initial residual = 0.0169452, Final residual = 0.00164887, No Iterations 12

Time = 48

smoothSolver:  Solving for Ux, Initial residual = 0.0186641, Final residual = 0.00133482, No Iterations 6
smoothSolver:  Solving for Uy, Initial residual = 0.0082414, Final residual = 0.000591697, No Iterations 6
GAMG:  Solving for p, Initial residual = 0.00946774, Final residual = 0.00072813, No Iterations 2
time step continuity errors : sum local = 0.00187525, global = 0.000186054, cumulative = 0.00794024
smoothSolver:  Solving for omega, Initial residual = 0.00176738, Final residual = 0.000158147, No Iterations 5
smoothSolver:  Solving for k, Initial residual = 0.02074, Final residual = 0.00166784, No Iterations 6
ExecutionTime = 0.67 s  ClockTime = 1 s

scalarTransport execute: age
smoothSolver:  Solving for age, Initial residual = 0.0171774, Final residual = 0.0016919, No Iterations 12

Time = 49

smoothSolver:  Solving for Ux, Initial residual = 0.0183667, Final residual = 0.00131739, No Iterations 6
smoothSolver:  Solving for Uy, Initial residual = 0.00840368, Final residual = 0.000609335, No Iterations 6
GAMG:  Solving for p, Initial residual = 0.00925913, Final residual = 0.000738439, No Iterations 2
time step continuity errors : sum local = 0.00189965, global = 0.000186528, cumulative = 0.00812676
smoothSolver:  Solving for omega, Initial residual = 0.00169698, Final residual = 0.000150647, No Iterations 5
smoothSolver:  Solving for k, Initial residual = 0.0202284, Final residual = 0.0016252, No Iterations 6
ExecutionTime = 0.69 s  ClockTime = 1 s

scalarTransport execute: age
smoothSolver:  Solving for age, Initial residual = 0.0174146, Final residual = 0.00173345, No Iterations 12

Time = 50

smoothSolver:  Solving for Ux, Initial residual = 0.0180692, Final residual = 0.00129979, No Iterations 6
smoothSolver:  Solving for Uy, Initial residual = 0.00857241, Final residual = 0.000626818, No Iterations 6
GAMG:  Solving for p, Initial residual = 0.00909026, Final residual = 0.000750387, No Iterations 2
time step continuity errors : sum local = 0.00192819, global = 0.000187959, cumulative = 0.00831472
smoothSolver:  Solving for omega, Initial residual = 0.00163024, Final residual = 0.000143604, No Iterations 5
smoothSolver:  Solving for k, Initial residual = 0.0197434, Final residual = 0.00158449, No Iterations 6
ExecutionTime = 0.7 s  ClockTime = 1 s

scalarTransport execute: age
smoothSolver:  Solving for age, Initial residual = 0.0175664, Final residual = 0.00154836, No Iterations 13

Time = 51

smoothSolver:  Solving for Ux, Initial residual = 0.017772, Final residual = 0.00128182, No Iterations 6
smoothSolver:  Solving for Uy, Initial residual = 0.00874757, Final residual = 0.000643758, No Iterations 6
GAMG:  Solving for p, Initial residual = 0.008939, Final residual = 0.000761951, No Iterations 2
time step continuity errors : sum local = 0.00195508, global = 0.000189019, cumulative = 0.00850374
smoothSolver:  Solving for omega, Initial residual = 0.00157005, Final residual = 0.000137102, No Iterations 5
smoothSolver:  Solving for k, Initial residual = 0.0192831, Final residual = 0.00154555, No Iterations 6
ExecutionTime = 0.71 s  ClockTime = 1 s

scalarTransport execute: age
smoothSolver:  Solving for age, Initial residual = 0.0176857, Final residual = 0.00156907, No Iterations 13

Time = 52

smoothSolver:  Solving for Ux, Initial residual = 0.0175022, Final residual = 0.0012643, No Iterations 6
smoothSolver:  Solving for Uy, Initial residual = 0.0089259, Final residual = 0.000659868, No Iterations 6
GAMG:  Solving for p, Initial residual = 0.00883983, Final residual = 0.000775052, No Iterations 2
time step continuity errors : sum local = 0.00198583, global = 0.000191052, cumulative = 0.00869479
smoothSolver:  Solving for omega, Initial residual = 0.00151669, Final residual = 0.000131103, No Iterations 5
smoothSolver:  Solving for k, Initial residual = 0.018844, Final residual = 0.00150826, No Iterations 6
ExecutionTime = 0.73 s  ClockTime = 1 s

scalarTransport execute: age
smoothSolver:  Solving for age, Initial residual = 0.0177381, Final residual = 0.00158773, No Iterations 13

Time = 53

smoothSolver:  Solving for Ux, Initial residual = 0.01725, Final residual = 0.0012471, No Iterations 6
smoothSolver:  Solving for Uy, Initial residual = 0.00909826, Final residual = 0.000674719, No Iterations 6
GAMG:  Solving for p, Initial residual = 0.00878783, Final residual = 0.000793086, No Iterations 2
time step continuity errors : sum local = 0.00202849, global = 0.000192323, cumulative = 0.00888712
smoothSolver:  Solving for omega, Initial residual = 0.00147061, Final residual = 0.000125524, No Iterations 5
smoothSolver:  Solving for k, Initial residual = 0.0184258, Final residual = 0.00147254, No Iterations 6
ExecutionTime = 0.74 s  ClockTime = 1 s

scalarTransport execute: age
smoothSolver:  Solving for age, Initial residual = 0.0178262, Final residual = 0.00160522, No Iterations 13

Time = 54

smoothSolver:  Solving for Ux, Initial residual = 0.017008, Final residual = 0.00122992, No Iterations 6
smoothSolver:  Solving for Uy, Initial residual = 0.00925179, Final residual = 0.000687992, No Iterations 6
GAMG:  Solving for p, Initial residual = 0.00857386, Final residual = 0.000802393, No Iterations 2
time step continuity errors : sum local = 0.00204443, global = 0.000192242, cumulative = 0.00907936
smoothSolver:  Solving for omega, Initial residual = 0.00141616, Final residual = 0.000120282, No Iterations 5
smoothSolver:  Solving for k, Initial residual = 0.0180276, Final residual = 0.00143829, No Iterations 6
ExecutionTime = 0.75 s  ClockTime = 1 s

scalarTransport execute: age
smoothSolver:  Solving for age, Initial residual = 0.0179484, Final residual = 0.00161999, No Iterations 13

Time = 55

smoothSolver:  Solving for Ux, Initial residual = 0.0167704, Final residual = 0.0012132, No Iterations 6
smoothSolver:  Solving for Uy, Initial residual = 0.0093747, Final residual = 0.000699558, No Iterations 6
GAMG:  Solving for p, Initial residual = 0.00846974, Final residual = 0.000811723, No Iterations 2
time step continuity errors : sum local = 0.00206022, global = 0.000190949, cumulative = 0.00927031
smoothSolver:  Solving for omega, Initial residual = 0.00137465, Final residual = 0.000115487, No Iterations 5
smoothSolver:  Solving for k, Initial residual = 0.0176448, Final residual = 0.00140536, No Iterations 6
ExecutionTime = 0.76 s  ClockTime = 1 s

scalarTransport execute: age
smoothSolver:  Solving for age, Initial residual = 0.0181528, Final residual = 0.00163332, No Iterations 13

Time = 56

smoothSolver:  Solving for Ux, Initial residual = 0.0165385, Final residual = 0.00119689, No Iterations 6
smoothSolver:  Solving for Uy, Initial residual = 0.0094781, Final residual = 0.000709157, No Iterations 6
GAMG:  Solving for p, Initial residual = 0.00845947, Final residual = 0.000821039, No Iterations 2
time step continuity errors : sum local = 0.00207634, global = 0.00018888, cumulative = 0.00945919
smoothSolver:  Solving for omega, Initial residual = 0.00133848, Final residual = 0.000111108, No Iterations 5
smoothSolver:  Solving for k, Initial residual = 0.0172763, Final residual = 0.00137359, No Iterations 6
ExecutionTime = 0.78 s  ClockTime = 1 s

scalarTransport execute: age
smoothSolver:  Solving for age, Initial residual = 0.0182709, Final residual = 0.00164539, No Iterations 13

Time = 57

smoothSolver:  Solving for Ux, Initial residual = 0.0163209, Final residual = 0.00118095, No Iterations 6
smoothSolver:  Solving for Uy, Initial residual = 0.00955869, Final residual = 0.000716969, No Iterations 6
GAMG:  Solving for p, Initial residual = 0.00850116, Final residual = 0.000828032, No Iterations 2
time step continuity errors : sum local = 0.00208614, global = 0.000183364, cumulative = 0.00964255
smoothSolver:  Solving for omega, Initial residual = 0.00130712, Final residual = 0.000107084, No Iterations 5
smoothSolver:  Solving for k, Initial residual = 0.0169196, Final residual = 0.00134295, No Iterations 6
ExecutionTime = 0.79 s  ClockTime = 1 s

scalarTransport execute: age
smoothSolver:  Solving for age, Initial residual = 0.0185255, Final residual = 0.00166094, No Iterations 13

Time = 58

smoothSolver:  Solving for Ux, Initial residual = 0.0161434, Final residual = 0.00116622, No Iterations 6
smoothSolver:  Solving for Uy, Initial residual = 0.00960617, Final residual = 0.000722612, No Iterations 6
GAMG:  Solving for p, Initial residual = 0.0085519, Final residual = 0.000830189, No Iterations 2
time step continuity errors : sum local = 0.0020831, global = 0.000170522, cumulative = 0.00981307
smoothSolver:  Solving for omega, Initial residual = 0.00127505, Final residual = 0.00010337, No Iterations 5
smoothSolver:  Solving for k, Initial residual = 0.0165765, Final residual = 0.00131332, No Iterations 6
ExecutionTime = 0.8 s  ClockTime = 1 s

scalarTransport execute: age
smoothSolver:  Solving for age, Initial residual = 0.0187203, Final residual = 0.00168699, No Iterations 13

Time = 59

smoothSolver:  Solving for Ux, Initial residual = 0.0160001, Final residual = 0.00115329, No Iterations 6
smoothSolver:  Solving for Uy, Initial residual = 0.00962934, Final residual = 0.000726028, No Iterations 6
GAMG:  Solving for p, Initial residual = 0.00858622, Final residual = 0.00084148, No Iterations 2
time step continuity errors : sum local = 0.00210168, global = 0.000165224, cumulative = 0.0099783
smoothSolver:  Solving for omega, Initial residual = 0.00124149, Final residual = 9.99322e-05, No Iterations 5
smoothSolver:  Solving for k, Initial residual = 0.0162451, Final residual = 0.00128464, No Iterations 6
ExecutionTime = 0.82 s  ClockTime = 1 s

scalarTransport execute: age
smoothSolver:  Solving for age, Initial residual = 0.018818, Final residual = 0.0017281, No Iterations 13

Time = 60

smoothSolver:  Solving for Ux, Initial residual = 0.0158603, Final residual = 0.00114143, No Iterations 6
smoothSolver:  Solving for Uy, Initial residual = 0.00963673, Final residual = 0.000728363, No Iterations 6
GAMG:  Solving for p, Initial residual = 0.00860798, Final residual = 0.000846357, No Iterations 2
time step continuity errors : sum local = 0.00210623, global = 0.000160796, cumulative = 0.0101391
smoothSolver:  Solving for omega, Initial residual = 0.00121712, Final residual = 9.67472e-05, No Iterations 5
smoothSolver:  Solving for k, Initial residual = 0.015924, Final residual = 0.00125688, No Iterations 6
ExecutionTime = 0.83 s  ClockTime = 1 s

scalarTransport execute: age
smoothSolver:  Solving for age, Initial residual = 0.018984, Final residual = 0.00176813, No Iterations 13

Time = 61

smoothSolver:  Solving for Ux, Initial residual = 0.0157524, Final residual = 0.00113207, No Iterations 6
smoothSolver:  Solving for Uy, Initial residual = 0.0096213, Final residual = 0.000728903, No Iterations 6
GAMG:  Solving for p, Initial residual = 0.00862713, Final residual = 0.000844198, No Iterations 2
time step continuity errors : sum local = 0.00209346, global = 0.000157625, cumulative = 0.0102967
smoothSolver:  Solving for omega, Initial residual = 0.00119154, Final residual = 9.38022e-05, No Iterations 5
smoothSolver:  Solving for k, Initial residual = 0.0156119, Final residual = 0.00122991, No Iterations 6
ExecutionTime = 0.84 s  ClockTime = 1 s

scalarTransport execute: age
smoothSolver:  Solving for age, Initial residual = 0.0190729, Final residual = 0.00179549, No Iterations 13

Time = 62

smoothSolver:  Solving for Ux, Initial residual = 0.0156687, Final residual = 0.00112487, No Iterations 6
smoothSolver:  Solving for Uy, Initial residual = 0.00958284, Final residual = 0.000727348, No Iterations 6
GAMG:  Solving for p, Initial residual = 0.00866146, Final residual = 0.000838272, No Iterations 2
time step continuity errors : sum local = 0.00207085, global = 0.000155561, cumulative = 0.0104523
smoothSolver:  Solving for omega, Initial residual = 0.00116554, Final residual = 9.10647e-05, No Iterations 5
smoothSolver:  Solving for k, Initial residual = 0.015306, Final residual = 0.00120363, No Iterations 6
ExecutionTime = 0.86 s  ClockTime = 1 s

scalarTransport execute: age
smoothSolver:  Solving for age, Initial residual = 0.0192328, Final residual = 0.00181898, No Iterations 13

Time = 63

smoothSolver:  Solving for Ux, Initial residual = 0.0156029, Final residual = 0.00111896, No Iterations 6
smoothSolver:  Solving for Uy, Initial residual = 0.0095175, Final residual = 0.000723817, No Iterations 6
GAMG:  Solving for p, Initial residual = 0.00871682, Final residual = 0.000828839, No Iterations 2
time step continuity errors : sum local = 0.00203932, global = 0.000154242, cumulative = 0.0106065
smoothSolver:  Solving for omega, Initial residual = 0.00113981, Final residual = 8.85496e-05, No Iterations 5
smoothSolver:  Solving for k, Initial residual = 0.0150062, Final residual = 0.001178, No Iterations 6
ExecutionTime = 0.86 s  ClockTime = 1 s

scalarTransport execute: age
smoothSolver:  Solving for age, Initial residual = 0.0192677, Final residual = 0.00183657, No Iterations 13

Time = 64

smoothSolver:  Solving for Ux, Initial residual = 0.0155427, Final residual = 0.00111357, No Iterations 6
smoothSolver:  Solving for Uy, Initial residual = 0.00942575, Final residual = 0.00071844, No Iterations 6
GAMG:  Solving for p, Initial residual = 0.00876221, Final residual = 0.000815834, No Iterations 2
time step continuity errors : sum local = 0.00199828, global = 0.00015317, cumulative = 0.0107597
smoothSolver:  Solving for omega, Initial residual = 0.00111653, Final residual = 8.62568e-05, No Iterations 5
smoothSolver:  Solving for k, Initial residual = 0.0147133, Final residual = 0.00115296, No Iterations 6
ExecutionTime = 0.87 s  ClockTime = 1 s

scalarTransport execute: age
smoothSolver:  Solving for age, Initial residual = 0.0192109, Final residual = 0.00188082, No Iterations 13

Time = 65

smoothSolver:  Solving for Ux, Initial residual = 0.0154749, Final residual = 0.00110788, No Iterations 6
smoothSolver:  Solving for Uy, Initial residual = 0.00931643, Final residual = 0.000711434, No Iterations 6
GAMG:  Solving for p, Initial residual = 0.008829, Final residual = 0.00079973, No Iterations 2
time step continuity errors : sum local = 0.00194891, global = 0.000151967, cumulative = 0.0109117
smoothSolver:  Solving for omega, Initial residual = 0.00109565, Final residual = 8.41487e-05, No Iterations 5
smoothSolver:  Solving for k, Initial residual = 0.0144252, Final residual = 0.00112839, No Iterations 6
ExecutionTime = 0.89 s  ClockTime = 1 s

scalarTransport execute: age
smoothSolver:  Solving for age, Initial residual = 0.019187, Final residual = 0.00190615, No Iterations 13

Time = 66

smoothSolver:  Solving for Ux, Initial residual = 0.0153962, Final residual = 0.00110137, No Iterations 6
smoothSolver:  Solving for Uy, Initial residual = 0.00919489, Final residual = 0.000703166, No Iterations 6
GAMG:  Solving for p, Initial residual = 0.00890293, Final residual = 0.000782744, No Iterations 2
time step continuity errors : sum local = 0.00189714, global = 0.000149105, cumulative = 0.0110608
smoothSolver:  Solving for omega, Initial residual = 0.00107525, Final residual = 8.211e-05, No Iterations 5
smoothSolver:  Solving for k, Initial residual = 0.0141419, Final residual = 0.00110417, No Iterations 6
ExecutionTime = 0.9 s  ClockTime = 1 s

scalarTransport execute: age
smoothSolver:  Solving for age, Initial residual = 0.0190512, Final residual = 0.00168496, No Iterations 14

Time = 67

smoothSolver:  Solving for Ux, Initial residual = 0.0153028, Final residual = 0.00109403, No Iterations 6
smoothSolver:  Solving for Uy, Initial residual = 0.00905943, Final residual = 0.00069373, No Iterations 6
GAMG:  Solving for p, Initial residual = 0.00894027, Final residual = 0.000763618, No Iterations 2
time step continuity errors : sum local = 0.00184071, global = 0.00014517, cumulative = 0.0112059
smoothSolver:  Solving for omega, Initial residual = 0.00105523, Final residual = 8.01743e-05, No Iterations 5
smoothSolver:  Solving for k, Initial residual = 0.0138611, Final residual = 0.0010803, No Iterations 6
ExecutionTime = 0.91 s  ClockTime = 1 s

scalarTransport execute: age
smoothSolver:  Solving for age, Initial residual = 0.0186916, Final residual = 0.00169594, No Iterations 14

Time = 68

smoothSolver:  Solving for Ux, Initial residual = 0.0151878, Final residual = 0.00108489, No Iterations 6
smoothSolver:  Solving for Uy, Initial residual = 0.00891633, Final residual = 0.000683251, No Iterations 6
GAMG:  Solving for p, Initial residual = 0.00895508, Final residual = 0.000747062, No Iterations 2
time step continuity errors : sum local = 0.00179162, global = 0.000140041, cumulative = 0.011346
smoothSolver:  Solving for omega, Initial residual = 0.0010327, Final residual = 7.82682e-05, No Iterations 5
smoothSolver:  Solving for k, Initial residual = 0.013584, Final residual = 0.00105683, No Iterations 6
ExecutionTime = 0.92 s  ClockTime = 1 s

scalarTransport execute: age
smoothSolver:  Solving for age, Initial residual = 0.0183828, Final residual = 0.00170447, No Iterations 14

Time = 69

smoothSolver:  Solving for Ux, Initial residual = 0.0150475, Final residual = 0.00107376, No Iterations 6
smoothSolver:  Solving for Uy, Initial residual = 0.00875927, Final residual = 0.000671702, No Iterations 6
GAMG:  Solving for p, Initial residual = 0.00894847, Final residual = 0.000733617, No Iterations 2
time step continuity errors : sum local = 0.00175075, global = 0.00013384, cumulative = 0.0114798
smoothSolver:  Solving for omega, Initial residual = 0.00101247, Final residual = 7.63855e-05, No Iterations 5
smoothSolver:  Solving for k, Initial residual = 0.0133103, Final residual = 0.00103366, No Iterations 6
ExecutionTime = 0.94 s  ClockTime = 1 s

scalarTransport execute: age
smoothSolver:  Solving for age, Initial residual = 0.0180475, Final residual = 0.00170532, No Iterations 14

Time = 70

smoothSolver:  Solving for Ux, Initial residual = 0.0148753, Final residual = 0.00106061, No Iterations 6
smoothSolver:  Solving for Uy, Initial residual = 0.00859047, Final residual = 0.000659196, No Iterations 6
GAMG:  Solving for p, Initial residual = 0.00894842, Final residual = 0.000721344, No Iterations 2
time step continuity errors : sum local = 0.0017136, global = 0.000127053, cumulative = 0.0116069
smoothSolver:  Solving for omega, Initial residual = 0.000990629, Final residual = 7.47089e-05, No Iterations 5
smoothSolver:  Solving for k, Initial residual = 0.01304, Final residual = 0.00101074, No Iterations 6
ExecutionTime = 0.95 s  ClockTime = 1 s

scalarTransport execute: age
smoothSolver:  Solving for age, Initial residual = 0.0177104, Final residual = 0.00169825, No Iterations 14

Time = 71

smoothSolver:  Solving for Ux, Initial residual = 0.0146722, Final residual = 0.00104567, No Iterations 6
smoothSolver:  Solving for Uy, Initial residual = 0.00841253, Final residual = 0.000645769, No Iterations 6
GAMG:  Solving for p, Initial residual = 0.00894988, Final residual = 0.000709806, No Iterations 2
time step continuity errors : sum local = 0.00167888, global = 0.000120184, cumulative = 0.011727
smoothSolver:  Solving for omega, Initial residual = 0.000970028, Final residual = 7.30813e-05, No Iterations 5
smoothSolver:  Solving for k, Initial residual = 0.0127737, Final residual = 0.000988013, No Iterations 6
ExecutionTime = 0.96 s  ClockTime = 1 s

scalarTransport execute: age
smoothSolver:  Solving for age, Initial residual = 0.0172423, Final residual = 0.00168784, No Iterations 14

Time = 72

smoothSolver:  Solving for Ux, Initial residual = 0.0144397, Final residual = 0.00102892, No Iterations 6
smoothSolver:  Solving for Uy, Initial residual = 0.0082329, Final residual = 0.000631506, No Iterations 6
GAMG:  Solving for p, Initial residual = 0.00892114, Final residual = 0.000699493, No Iterations 2
time step continuity errors : sum local = 0.0016471, global = 0.000113683, cumulative = 0.0118407
smoothSolver:  Solving for omega, Initial residual = 0.000950076, Final residual = 7.14847e-05, No Iterations 5
smoothSolver:  Solving for k, Initial residual = 0.0125114, Final residual = 0.000965505, No Iterations 6
ExecutionTime = 0.98 s  ClockTime = 1 s

scalarTransport execute: age
smoothSolver:  Solving for age, Initial residual = 0.0167532, Final residual = 0.00165887, No Iterations 14

Time = 73

smoothSolver:  Solving for Ux, Initial residual = 0.0141821, Final residual = 0.00101045, No Iterations 6
smoothSolver:  Solving for Uy, Initial residual = 0.00804244, Final residual = 0.000616542, No Iterations 6
GAMG:  Solving for p, Initial residual = 0.00885245, Final residual = 0.000689113, No Iterations 2
time step continuity errors : sum local = 0.00161546, global = 0.000108577, cumulative = 0.0119493
smoothSolver:  Solving for omega, Initial residual = 0.000931125, Final residual = 6.98832e-05, No Iterations 5
smoothSolver:  Solving for k, Initial residual = 0.0122517, Final residual = 0.000943143, No Iterations 6
ExecutionTime = 0.99 s  ClockTime = 1 s

scalarTransport execute: age
smoothSolver:  Solving for age, Initial residual = 0.0161679, Final residual = 0.00161203, No Iterations 14

Time = 74

smoothSolver:  Solving for Ux, Initial residual = 0.0139014, Final residual = 0.000990286, No Iterations 6
smoothSolver:  Solving for Uy, Initial residual = 0.00785228, Final residual = 0.000600995, No Iterations 6
GAMG:  Solving for p, Initial residual = 0.00875024, Final residual = 0.000679297, No Iterations 2
time step continuity errors : sum local = 0.0015855, global = 0.000104782, cumulative = 0.0120541
smoothSolver:  Solving for omega, Initial residual = 0.000912676, Final residual = 6.82615e-05, No Iterations 5
smoothSolver:  Solving for k, Initial residual = 0.011992, Final residual = 0.000920783, No Iterations 6
ExecutionTime = 1 s  ClockTime = 1 s

scalarTransport execute: age
smoothSolver:  Solving for age, Initial residual = 0.015466, Final residual = 0.00136031, No Iterations 15

Time = 75

smoothSolver:  Solving for Ux, Initial residual = 0.0135978, Final residual = 0.000968577, No Iterations 6
smoothSolver:  Solving for Uy, Initial residual = 0.00765183, Final residual = 0.000584827, No Iterations 6
GAMG:  Solving for p, Initial residual = 0.00861547, Final residual = 0.000668823, No Iterations 2
time step continuity errors : sum local = 0.00155435, global = 0.000102785, cumulative = 0.0121569
smoothSolver:  Solving for omega, Initial residual = 0.000893491, Final residual = 6.66807e-05, No Iterations 5
smoothSolver:  Solving for k, Initial residual = 0.011733, Final residual = 0.000898389, No Iterations 6
ExecutionTime = 1.03 s  ClockTime = 1 s

scalarTransport execute: age
smoothSolver:  Solving for age, Initial residual = 0.0147626, Final residual = 0.00129661, No Iterations 15

Time = 76

smoothSolver:  Solving for Ux, Initial residual = 0.013272, Final residual = 0.000945105, No Iterations 6
smoothSolver:  Solving for Uy, Initial residual = 0.00745591, Final residual = 0.000568091, No Iterations 6
GAMG:  Solving for p, Initial residual = 0.00845717, Final residual = 0.0006567, No Iterations 2
time step continuity errors : sum local = 0.00151959, global = 0.000102472, cumulative = 0.0122593
smoothSolver:  Solving for omega, Initial residual = 0.000875138, Final residual = 6.50963e-05, No Iterations 5
smoothSolver:  Solving for k, Initial residual = 0.0114748, Final residual = 0.00087603, No Iterations 6
ExecutionTime = 1.04 s  ClockTime = 1 s

scalarTransport execute: age
smoothSolver:  Solving for age, Initial residual = 0.014092, Final residual = 0.00139817, No Iterations 14

Time = 77

smoothSolver:  Solving for Ux, Initial residual = 0.0129238, Final residual = 0.000919933, No Iterations 6
smoothSolver:  Solving for Uy, Initial residual = 0.00725256, Final residual = 0.000550923, No Iterations 6
GAMG:  Solving for p, Initial residual = 0.00826846, Final residual = 0.000643377, No Iterations 2
time step continuity errors : sum local = 0.00148214, global = 0.000103808, cumulative = 0.0123632
smoothSolver:  Solving for omega, Initial residual = 0.000863402, Final residual = 6.33789e-05, No Iterations 5
smoothSolver:  Solving for k, Initial residual = 0.011219, Final residual = 0.000853785, No Iterations 6
ExecutionTime = 1.05 s  ClockTime = 1 s

scalarTransport execute: age
smoothSolver:  Solving for age, Initial residual = 0.0134607, Final residual = 0.0013108, No Iterations 14

Time = 78

smoothSolver:  Solving for Ux, Initial residual = 0.012553, Final residual = 0.000893764, No Iterations 6
smoothSolver:  Solving for Uy, Initial residual = 0.00705367, Final residual = 0.000533334, No Iterations 6
GAMG:  Solving for p, Initial residual = 0.00807599, Final residual = 0.000630074, No Iterations 2
time step continuity errors : sum local = 0.00144513, global = 0.000106382, cumulative = 0.0124695
smoothSolver:  Solving for omega, Initial residual = 0.00084982, Final residual = 6.16679e-05, No Iterations 5
smoothSolver:  Solving for k, Initial residual = 0.0109645, Final residual = 0.000831594, No Iterations 6
ExecutionTime = 1.06 s  ClockTime = 1 s

scalarTransport execute: age
smoothSolver:  Solving for age, Initial residual = 0.0128584, Final residual = 0.00122719, No Iterations 14

Time = 79

smoothSolver:  Solving for Ux, Initial residual = 0.0121758, Final residual = 0.000867038, No Iterations 6
smoothSolver:  Solving for Uy, Initial residual = 0.00685387, Final residual = 0.000515374, No Iterations 6
GAMG:  Solving for p, Initial residual = 0.00788362, Final residual = 0.000617035, No Iterations 2
time step continuity errors : sum local = 0.001409, global = 0.000110134, cumulative = 0.0125797
smoothSolver:  Solving for omega, Initial residual = 0.000831343, Final residual = 5.99074e-05, No Iterations 5
smoothSolver:  Solving for k, Initial residual = 0.01071, Final residual = 0.000809419, No Iterations 6
ExecutionTime = 1.08 s  ClockTime = 1 s

scalarTransport execute: age
smoothSolver:  Solving for age, Initial residual = 0.0123216, Final residual = 0.00115461, No Iterations 14

Time = 80

smoothSolver:  Solving for Ux, Initial residual = 0.0117971, Final residual = 0.00083971, No Iterations 6
smoothSolver:  Solving for Uy, Initial residual = 0.00665752, Final residual = 0.00049719, No Iterations 6
GAMG:  Solving for p, Initial residual = 0.00769294, Final residual = 0.000605736, No Iterations 2
time step continuity errors : sum local = 0.00137705, global = 0.000114747, cumulative = 0.0126944
smoothSolver:  Solving for omega, Initial residual = 0.000813673, Final residual = 5.81409e-05, No Iterations 5
smoothSolver:  Solving for k, Initial residual = 0.0104559, Final residual = 0.000787281, No Iterations 6
ExecutionTime = 1.09 s  ClockTime = 1 s

scalarTransport execute: age
smoothSolver:  Solving for age, Initial residual = 0.0118318, Final residual = 0.00107907, No Iterations 14

Time = 81

smoothSolver:  Solving for Ux, Initial residual = 0.0114181, Final residual = 0.00081192, No Iterations 6
smoothSolver:  Solving for Uy, Initial residual = 0.0064601, Final residual = 0.000478768, No Iterations 6
GAMG:  Solving for p, Initial residual = 0.00753913, Final residual = 0.000595729, No Iterations 2
time step continuity errors : sum local = 0.00134839, global = 0.000119858, cumulative = 0.0128143
smoothSolver:  Solving for omega, Initial residual = 0.00079086, Final residual = 5.62458e-05, No Iterations 5
smoothSolver:  Solving for k, Initial residual = 0.0102012, Final residual = 0.000765133, No Iterations 6
ExecutionTime = 1.1 s  ClockTime = 1 s

scalarTransport execute: age
smoothSolver:  Solving for age, Initial residual = 0.0112961, Final residual = 0.0010103, No Iterations 14

Time = 82

smoothSolver:  Solving for Ux, Initial residual = 0.0110404, Final residual = 0.000784033, No Iterations 6
smoothSolver:  Solving for Uy, Initial residual = 0.00625947, Final residual = 0.000460005, No Iterations 6
GAMG:  Solving for p, Initial residual = 0.0074537, Final residual = 0.000586423, No Iterations 2
time step continuity errors : sum local = 0.00132172, global = 0.000125044, cumulative = 0.0129393
smoothSolver:  Solving for omega, Initial residual = 0.000770748, Final residual = 5.43525e-05, No Iterations 5
smoothSolver:  Solving for k, Initial residual = 0.00994696, Final residual = 0.000742902, No Iterations 6
ExecutionTime = 1.12 s  ClockTime = 1 s

scalarTransport execute: age
smoothSolver:  Solving for age, Initial residual = 0.0107876, Final residual = 0.000952543, No Iterations 14

Time = 83

smoothSolver:  Solving for Ux, Initial residual = 0.0106597, Final residual = 0.000755867, No Iterations 6
smoothSolver:  Solving for Uy, Initial residual = 0.00605348, Final residual = 0.00044092, No Iterations 6
GAMG:  Solving for p, Initial residual = 0.00742388, Final residual = 0.000578443, No Iterations 2
time step continuity errors : sum local = 0.0012981, global = 0.000130031, cumulative = 0.0130694
smoothSolver:  Solving for omega, Initial residual = 0.000751845, Final residual = 5.25207e-05, No Iterations 5
smoothSolver:  Solving for k, Initial residual = 0.00969157, Final residual = 0.000720505, No Iterations 6
ExecutionTime = 1.13 s  ClockTime = 1 s

scalarTransport execute: age
smoothSolver:  Solving for age, Initial residual = 0.0102994, Final residual = 0.000906692, No Iterations 14

Time = 84

smoothSolver:  Solving for Ux, Initial residual = 0.0102763, Final residual = 0.000727327, No Iterations 6
smoothSolver:  Solving for Uy, Initial residual = 0.00584217, Final residual = 0.000421553, No Iterations 6
GAMG:  Solving for p, Initial residual = 0.007447, Final residual = 0.000571891, No Iterations 2
time step continuity errors : sum local = 0.00127809, global = 0.000134697, cumulative = 0.013204
smoothSolver:  Solving for omega, Initial residual = 0.000735722, Final residual = 5.05655e-05, No Iterations 5
smoothSolver:  Solving for k, Initial residual = 0.0094363, Final residual = 0.000698073, No Iterations 6
ExecutionTime = 1.14 s  ClockTime = 1 s

scalarTransport execute: age
smoothSolver:  Solving for age, Initial residual = 0.00982759, Final residual = 0.000878412, No Iterations 14

Time = 85

smoothSolver:  Solving for Ux, Initial residual = 0.00990032, Final residual = 0.00069898, No Iterations 6
smoothSolver:  Solving for Uy, Initial residual = 0.00562716, Final residual = 0.000402231, No Iterations 6
GAMG:  Solving for p, Initial residual = 0.00747523, Final residual = 0.000559895, No Iterations 2
time step continuity errors : sum local = 0.00124609, global = 0.000135362, cumulative = 0.0133394
smoothSolver:  Solving for omega, Initial residual = 0.000722065, Final residual = 4.89256e-05, No Iterations 5
smoothSolver:  Solving for k, Initial residual = 0.00918, Final residual = 0.000675463, No Iterations 6
ExecutionTime = 1.14 s  ClockTime = 1 s

scalarTransport execute: age
smoothSolver:  Solving for age, Initial residual = 0.00938459, Final residual = 0.000859293, No Iterations 14

Time = 86

smoothSolver:  Solving for Ux, Initial residual = 0.00952911, Final residual = 0.000670522, No Iterations 6
smoothSolver:  Solving for Uy, Initial residual = 0.00541571, Final residual = 0.000382934, No Iterations 6
GAMG:  Solving for p, Initial residual = 0.00748057, Final residual = 0.000555652, No Iterations 2
time step continuity errors : sum local = 0.00123011, global = 0.00013704, cumulative = 0.0134765
smoothSolver:  Solving for omega, Initial residual = 0.000710782, Final residual = 4.73916e-05, No Iterations 5
smoothSolver:  Solving for k, Initial residual = 0.00892444, Final residual = 0.000652706, No Iterations 6
ExecutionTime = 1.16 s  ClockTime = 1 s

scalarTransport execute: age
smoothSolver:  Solving for age, Initial residual = 0.00898607, Final residual = 0.000842511, No Iterations 14

Time = 87

smoothSolver:  Solving for Ux, Initial residual = 0.00915654, Final residual = 0.000642057, No Iterations 6
smoothSolver:  Solving for Uy, Initial residual = 0.00521103, Final residual = 0.000364076, No Iterations 6
GAMG:  Solving for p, Initial residual = 0.00746317, Final residual = 0.000551822, No Iterations 2
time step continuity errors : sum local = 0.00121687, global = 0.00013997, cumulative = 0.0136164
smoothSolver:  Solving for omega, Initial residual = 0.000701847, Final residual = 4.58836e-05, No Iterations 5
smoothSolver:  Solving for k, Initial residual = 0.00866769, Final residual = 0.000629803, No Iterations 6
ExecutionTime = 1.17 s  ClockTime = 1 s

scalarTransport execute: age
smoothSolver:  Solving for age, Initial residual = 0.00862489, Final residual = 0.000825173, No Iterations 14

Time = 88

smoothSolver:  Solving for Ux, Initial residual = 0.00877826, Final residual = 0.000613182, No Iterations 6
smoothSolver:  Solving for Uy, Initial residual = 0.0050174, Final residual = 0.000345906, No Iterations 6
GAMG:  Solving for p, Initial residual = 0.00735392, Final residual = 0.000544302, No Iterations 2
time step continuity errors : sum local = 0.00119566, global = 0.000141774, cumulative = 0.0137582
smoothSolver:  Solving for omega, Initial residual = 0.000693794, Final residual = 4.44251e-05, No Iterations 5
smoothSolver:  Solving for k, Initial residual = 0.00841035, Final residual = 0.000606852, No Iterations 6
ExecutionTime = 1.18 s  ClockTime = 1 s

scalarTransport execute: age
smoothSolver:  Solving for age, Initial residual = 0.00827382, Final residual = 0.000807036, No Iterations 14

Time = 89

smoothSolver:  Solving for Ux, Initial residual = 0.00840115, Final residual = 0.000584526, No Iterations 6
smoothSolver:  Solving for Uy, Initial residual = 0.00483628, Final residual = 0.000328879, No Iterations 6
GAMG:  Solving for p, Initial residual = 0.00722977, Final residual = 0.000534831, No Iterations 2
time step continuity errors : sum local = 0.00117058, global = 0.00014401, cumulative = 0.0139022
smoothSolver:  Solving for omega, Initial residual = 0.000686436, Final residual = 4.30096e-05, No Iterations 5
smoothSolver:  Solving for k, Initial residual = 0.00815228, Final residual = 0.000583856, No Iterations 6
ExecutionTime = 1.2 s  ClockTime = 1 s

scalarTransport execute: age
smoothSolver:  Solving for age, Initial residual = 0.00794633, Final residual = 0.000790091, No Iterations 14

Time = 90

smoothSolver:  Solving for Ux, Initial residual = 0.00801864, Final residual = 0.000555854, No Iterations 6
smoothSolver:  Solving for Uy, Initial residual = 0.00467769, Final residual = 0.000313564, No Iterations 6
GAMG:  Solving for p, Initial residual = 0.00710662, Final residual = 0.00052324, No Iterations 2
time step continuity errors : sum local = 0.00114199, global = 0.000146317, cumulative = 0.0140485
smoothSolver:  Solving for omega, Initial residual = 0.000676914, Final residual = 6.72256e-05, No Iterations 4
smoothSolver:  Solving for k, Initial residual = 0.00789304, Final residual = 0.000560974, No Iterations 6
ExecutionTime = 1.21 s  ClockTime = 1 s

scalarTransport execute: age
smoothSolver:  Solving for age, Initial residual = 0.0076465, Final residual = 0.000683691, No Iterations 15

Time = 91

smoothSolver:  Solving for Ux, Initial residual = 0.00763959, Final residual = 0.000527184, No Iterations 6
smoothSolver:  Solving for Uy, Initial residual = 0.00453899, Final residual = 0.000300515, No Iterations 6
GAMG:  Solving for p, Initial residual = 0.00696581, Final residual = 0.000510693, No Iterations 2
time step continuity errors : sum local = 0.00111089, global = 0.000148102, cumulative = 0.0141966
smoothSolver:  Solving for omega, Initial residual = 0.000674871, Final residual = 6.56045e-05, No Iterations 4
smoothSolver:  Solving for k, Initial residual = 0.00763431, Final residual = 0.000538194, No Iterations 6
ExecutionTime = 1.22 s  ClockTime = 1 s

scalarTransport execute: age
smoothSolver:  Solving for age, Initial residual = 0.00734263, Final residual = 0.00066911, No Iterations 15

Time = 92

smoothSolver:  Solving for Ux, Initial residual = 0.0072598, Final residual = 0.000499157, No Iterations 6
smoothSolver:  Solving for Uy, Initial residual = 0.00442707, Final residual = 0.000290637, No Iterations 6
GAMG:  Solving for p, Initial residual = 0.00686084, Final residual = 0.000497018, No Iterations 2
time step continuity errors : sum local = 0.00107912, global = 0.000149174, cumulative = 0.0143458
smoothSolver:  Solving for omega, Initial residual = 0.00067236, Final residual = 6.38187e-05, No Iterations 4
smoothSolver:  Solving for k, Initial residual = 0.00737798, Final residual = 0.000515581, No Iterations 6
ExecutionTime = 1.25 s  ClockTime = 1 s

scalarTransport execute: age
smoothSolver:  Solving for age, Initial residual = 0.00709539, Final residual = 0.000658581, No Iterations 15

Time = 93

smoothSolver:  Solving for Ux, Initial residual = 0.0068867, Final residual = 0.000471087, No Iterations 6
smoothSolver:  Solving for Uy, Initial residual = 0.00435416, Final residual = 0.000284987, No Iterations 6
GAMG:  Solving for p, Initial residual = 0.00671643, Final residual = 0.000484331, No Iterations 2
time step continuity errors : sum local = 0.0010487, global = 0.000149723, cumulative = 0.0144955
smoothSolver:  Solving for omega, Initial residual = 0.000667388, Final residual = 6.1934e-05, No Iterations 4
smoothSolver:  Solving for k, Initial residual = 0.00712625, Final residual = 0.000493248, No Iterations 6
ExecutionTime = 1.26 s  ClockTime = 1 s

scalarTransport execute: age
smoothSolver:  Solving for age, Initial residual = 0.00686851, Final residual = 0.000645876, No Iterations 15

Time = 94

smoothSolver:  Solving for Ux, Initial residual = 0.00651468, Final residual = 0.00044359, No Iterations 6
smoothSolver:  Solving for Uy, Initial residual = 0.00430159, Final residual = 0.000279769, No Iterations 6
GAMG:  Solving for p, Initial residual = 0.00662323, Final residual = 0.000475162, No Iterations 2
time step continuity errors : sum local = 0.00102436, global = 0.000150006, cumulative = 0.0146455
smoothSolver:  Solving for omega, Initial residual = 0.000660267, Final residual = 5.98333e-05, No Iterations 4
smoothSolver:  Solving for k, Initial residual = 0.00687603, Final residual = 0.000471189, No Iterations 6
ExecutionTime = 1.26 s  ClockTime = 1 s

scalarTransport execute: age
smoothSolver:  Solving for age, Initial residual = 0.00664089, Final residual = 0.000631268, No Iterations 15

Time = 95

smoothSolver:  Solving for Ux, Initial residual = 0.00615477, Final residual = 0.000416589, No Iterations 6
smoothSolver:  Solving for Uy, Initial residual = 0.00424293, Final residual = 0.000423266, No Iterations 5
GAMG:  Solving for p, Initial residual = 0.0065618, Final residual = 0.000461069, No Iterations 2
time step continuity errors : sum local = 0.000989745, global = 0.000148545, cumulative = 0.0147941
smoothSolver:  Solving for omega, Initial residual = 0.000652796, Final residual = 5.75355e-05, No Iterations 4
smoothSolver:  Solving for k, Initial residual = 0.00662667, Final residual = 0.000449448, No Iterations 6
ExecutionTime = 1.27 s  ClockTime = 1 s

scalarTransport execute: age
smoothSolver:  Solving for age, Initial residual = 0.00639465, Final residual = 0.000615742, No Iterations 15

Time = 96

smoothSolver:  Solving for Ux, Initial residual = 0.0057746, Final residual = 0.000388275, No Iterations 6
smoothSolver:  Solving for Uy, Initial residual = 0.00422459, Final residual = 0.000420561, No Iterations 5
[...]

Time = 559

smoothSolver:  Solving for Ux, Initial residual = 4.47575e-07, Final residual = 3.79183e-08, No Iterations 5
smoothSolver:  Solving for Uy, Initial residual = 2.94152e-07, Final residual = 2.35197e-08, No Iterations 5
GAMG:  Solving for p, Initial residual = 1.63241e-06, Final residual = 1.1446e-07, No Iterations 2
time step continuity errors : sum local = 2.31106e-07, global = 2.29483e-08, cumulative = 0.0208388
smoothSolver:  Solving for omega, Initial residual = 5.71193e-08, Final residual = 9.76752e-09, No Iterations 3
smoothSolver:  Solving for k, Initial residual = 1.71051e-07, Final residual = 1.453e-08, No Iterations 5
ExecutionTime = 7.15 s  ClockTime = 7 s

scalarTransport execute: age
smoothSolver:  Solving for age, Initial residual = 0.000302517, Final residual = 2.82025e-05, No Iterations 15

Time = 560

smoothSolver:  Solving for Ux, Initial residual = 4.37944e-07, Final residual = 3.70969e-08, No Iterations 5
smoothSolver:  Solving for Uy, Initial residual = 2.87911e-07, Final residual = 2.3017e-08, No Iterations 5
GAMG:  Solving for p, Initial residual = 1.59792e-06, Final residual = 1.11983e-07, No Iterations 2
time step continuity errors : sum local = 2.26105e-07, global = 2.24463e-08, cumulative = 0.0208388
smoothSolver:  Solving for omega, Initial residual = 5.63318e-08, Final residual = 9.65385e-09, No Iterations 3
smoothSolver:  Solving for k, Initial residual = 1.67374e-07, Final residual = 1.42116e-08, No Iterations 5
ExecutionTime = 7.16 s  ClockTime = 7 s

scalarTransport execute: age
smoothSolver:  Solving for age, Initial residual = 0.000301854, Final residual = 2.81414e-05, No Iterations 15

Time = 561

smoothSolver:  Solving for Ux, Initial residual = 4.28533e-07, Final residual = 3.62956e-08, No Iterations 5
smoothSolver:  Solving for Uy, Initial residual = 2.81769e-07, Final residual = 2.25229e-08, No Iterations 5
GAMG:  Solving for p, Initial residual = 1.56408e-06, Final residual = 1.09577e-07, No Iterations 2
time step continuity errors : sum local = 2.21248e-07, global = 2.19569e-08, cumulative = 0.0208388
smoothSolver:  Solving for omega, Initial residual = 5.54825e-08, Final residual = 9.52812e-09, No Iterations 3
smoothSolver:  Solving for k, Initial residual = 1.63748e-07, Final residual = 1.38987e-08, No Iterations 5
ExecutionTime = 7.18 s  ClockTime = 7 s

scalarTransport execute: age
smoothSolver:  Solving for age, Initial residual = 0.000301194, Final residual = 2.80805e-05, No Iterations 15

Time = 562

smoothSolver:  Solving for Ux, Initial residual = 4.19331e-07, Final residual = 3.55132e-08, No Iterations 5
smoothSolver:  Solving for Uy, Initial residual = 2.75739e-07, Final residual = 2.20383e-08, No Iterations 5
GAMG:  Solving for p, Initial residual = 1.53093e-06, Final residual = 1.07241e-07, No Iterations 2
time step continuity errors : sum local = 2.1653e-07, global = 2.14815e-08, cumulative = 0.0208388
smoothSolver:  Solving for omega, Initial residual = 5.45907e-08, Final residual = 9.39351e-09, No Iterations 3
smoothSolver:  Solving for k, Initial residual = 1.60175e-07, Final residual = 1.35914e-08, No Iterations 5
ExecutionTime = 7.19 s  ClockTime = 7 s

scalarTransport execute: age
smoothSolver:  Solving for age, Initial residual = 0.000300537, Final residual = 2.80198e-05, No Iterations 15

Time = 563

smoothSolver:  Solving for Ux, Initial residual = 4.10331e-07, Final residual = 3.47487e-08, No Iterations 5
smoothSolver:  Solving for Uy, Initial residual = 2.6982e-07, Final residual = 2.15635e-08, No Iterations 5
GAMG:  Solving for p, Initial residual = 1.49847e-06, Final residual = 1.04965e-07, No Iterations 2
time step continuity errors : sum local = 2.11936e-07, global = 2.10204e-08, cumulative = 0.0208389
smoothSolver:  Solving for omega, Initial residual = 5.3671e-08, Final residual = 9.25237e-09, No Iterations 3
smoothSolver:  Solving for k, Initial residual = 1.56658e-07, Final residual = 1.32898e-08, No Iterations 5
ExecutionTime = 7.2 s  ClockTime = 7 s

scalarTransport execute: age
smoothSolver:  Solving for age, Initial residual = 0.000299882, Final residual = 2.79594e-05, No Iterations 15

Time = 564

smoothSolver:  Solving for Ux, Initial residual = 4.01527e-07, Final residual = 3.40013e-08, No Iterations 5
smoothSolver:  Solving for Uy, Initial residual = 2.64014e-07, Final residual = 2.10981e-08, No Iterations 5
GAMG:  Solving for p, Initial residual = 1.46668e-06, Final residual = 1.02744e-07, No Iterations 2
time step continuity errors : sum local = 2.0745e-07, global = 2.05729e-08, cumulative = 0.0208389
smoothSolver:  Solving for omega, Initial residual = 5.27342e-08, Final residual = 9.10648e-09, No Iterations 3
smoothSolver:  Solving for k, Initial residual = 1.53201e-07, Final residual = 1.29942e-08, No Iterations 5
ExecutionTime = 7.21 s  ClockTime = 7 s

scalarTransport execute: age
smoothSolver:  Solving for age, Initial residual = 0.000299231, Final residual = 2.78993e-05, No Iterations 15

Time = 565

smoothSolver:  Solving for Ux, Initial residual = 3.92917e-07, Final residual = 3.32706e-08, No Iterations 5
smoothSolver:  Solving for Uy, Initial residual = 2.58323e-07, Final residual = 2.06421e-08, No Iterations 5
GAMG:  Solving for p, Initial residual = 1.43556e-06, Final residual = 1.00572e-07, No Iterations 2
time step continuity errors : sum local = 2.03065e-07, global = 2.01388e-08, cumulative = 0.0208389
smoothSolver:  Solving for omega, Initial residual = 5.17886e-08, Final residual = 8.95724e-09, No Iterations 3
smoothSolver:  Solving for k, Initial residual = 1.49808e-07, Final residual = 1.27048e-08, No Iterations 5
ExecutionTime = 7.23 s  ClockTime = 7 s

scalarTransport execute: age
smoothSolver:  Solving for age, Initial residual = 0.000298582, Final residual = 2.78394e-05, No Iterations 15

Time = 566

smoothSolver:  Solving for Ux, Initial residual = 3.84495e-07, Final residual = 3.25562e-08, No Iterations 5
smoothSolver:  Solving for Uy, Initial residual = 2.5275e-07, Final residual = 2.01956e-08, No Iterations 5
GAMG:  Solving for p, Initial residual = 1.4051e-06, Final residual = 9.84474e-08, No Iterations 2
time step continuity errors : sum local = 1.98776e-07, global = 1.97171e-08, cumulative = 0.0208389
smoothSolver:  Solving for omega, Initial residual = 5.08397e-08, Final residual = 8.8057e-09, No Iterations 3
smoothSolver:  Solving for k, Initial residual = 1.46483e-07, Final residual = 1.24218e-08, No Iterations 5
ExecutionTime = 7.24 s  ClockTime = 7 s

scalarTransport execute: age
smoothSolver:  Solving for age, Initial residual = 0.000297933, Final residual = 2.77797e-05, No Iterations 15

Time = 567

smoothSolver:  Solving for Ux, Initial residual = 3.76261e-07, Final residual = 3.18579e-08, No Iterations 5
smoothSolver:  Solving for Uy, Initial residual = 2.47299e-07, Final residual = 1.97588e-08, No Iterations 5
GAMG:  Solving for p, Initial residual = 1.37529e-06, Final residual = 9.63686e-08, No Iterations 2
time step continuity errors : sum local = 1.94578e-07, global = 1.93072e-08, cumulative = 0.0208389
smoothSolver:  Solving for omega, Initial residual = 4.98918e-08, Final residual = 8.65268e-09, No Iterations 3
smoothSolver:  Solving for k, Initial residual = 1.43228e-07, Final residual = 1.21452e-08, No Iterations 5
ExecutionTime = 7.25 s  ClockTime = 7 s

scalarTransport execute: age
smoothSolver:  Solving for age, Initial residual = 0.000297287, Final residual = 2.77203e-05, No Iterations 15

Time = 568

smoothSolver:  Solving for Ux, Initial residual = 3.6821e-07, Final residual = 3.11754e-08, No Iterations 5
smoothSolver:  Solving for Uy, Initial residual = 2.41973e-07, Final residual = 1.93316e-08, No Iterations 5
GAMG:  Solving for p, Initial residual = 1.34612e-06, Final residual = 9.43339e-08, No Iterations 2
time step continuity errors : sum local = 1.9047e-07, global = 1.89077e-08, cumulative = 0.020839
smoothSolver:  Solving for omega, Initial residual = 4.89476e-08, Final residual = 8.49884e-09, No Iterations 3
smoothSolver:  Solving for k, Initial residual = 1.40047e-07, Final residual = 1.18754e-08, No Iterations 5
ExecutionTime = 7.26 s  ClockTime = 7 s

scalarTransport execute: age
smoothSolver:  Solving for age, Initial residual = 0.000296645, Final residual = 2.76611e-05, No Iterations 15

Time = 569

smoothSolver:  Solving for Ux, Initial residual = 3.6034e-07, Final residual = 3.05082e-08, No Iterations 5
smoothSolver:  Solving for Uy, Initial residual = 2.3677e-07, Final residual = 1.89139e-08, No Iterations 5
GAMG:  Solving for p, Initial residual = 1.31757e-06, Final residual = 9.23423e-08, No Iterations 2
time step continuity errors : sum local = 1.86449e-07, global = 1.85175e-08, cumulative = 0.020839
smoothSolver:  Solving for omega, Initial residual = 4.80095e-08, Final residual = 8.34476e-09, No Iterations 3
smoothSolver:  Solving for k, Initial residual = 1.36939e-07, Final residual = 1.16123e-08, No Iterations 5
ExecutionTime = 7.28 s  ClockTime = 7 s

scalarTransport execute: age
smoothSolver:  Solving for age, Initial residual = 0.000296006, Final residual = 2.76022e-05, No Iterations 15

Time = 570

smoothSolver:  Solving for Ux, Initial residual = 3.52645e-07, Final residual = 2.98559e-08, No Iterations 5
smoothSolver:  Solving for Uy, Initial residual = 2.31688e-07, Final residual = 1.85057e-08, No Iterations 5
GAMG:  Solving for p, Initial residual = 1.28965e-06, Final residual = 9.03928e-08, No Iterations 2
time step continuity errors : sum local = 1.82513e-07, global = 1.81357e-08, cumulative = 0.020839
smoothSolver:  Solving for omega, Initial residual = 4.70788e-08, Final residual = 8.19087e-09, No Iterations 3
smoothSolver:  Solving for k, Initial residual = 1.33906e-07, Final residual = 1.13559e-08, No Iterations 5
ExecutionTime = 7.29 s  ClockTime = 7 s

scalarTransport execute: age
smoothSolver:  Solving for age, Initial residual = 0.000295371, Final residual = 2.75435e-05, No Iterations 15

Time = 571

smoothSolver:  Solving for Ux, Initial residual = 3.4512e-07, Final residual = 2.92179e-08, No Iterations 5
smoothSolver:  Solving for Uy, Initial residual = 2.26724e-07, Final residual = 1.81068e-08, No Iterations 5
GAMG:  Solving for p, Initial residual = 1.26233e-06, Final residual = 8.84846e-08, No Iterations 2
time step continuity errors : sum local = 1.7866e-07, global = 1.77618e-08, cumulative = 0.020839
smoothSolver:  Solving for omega, Initial residual = 4.6157e-08, Final residual = 8.03758e-09, No Iterations 3
smoothSolver:  Solving for k, Initial residual = 1.30947e-07, Final residual = 1.11062e-08, No Iterations 5
ExecutionTime = 7.3 s  ClockTime = 7 s

scalarTransport execute: age
smoothSolver:  Solving for age, Initial residual = 0.000294738, Final residual = 2.74852e-05, No Iterations 15

Time = 572

smoothSolver:  Solving for Ux, Initial residual = 3.3776e-07, Final residual = 2.85937e-08, No Iterations 5
smoothSolver:  Solving for Uy, Initial residual = 2.21873e-07, Final residual = 1.77171e-08, No Iterations 5
GAMG:  Solving for p, Initial residual = 1.23561e-06, Final residual = 8.6617e-08, No Iterations 2
time step continuity errors : sum local = 1.74889e-07, global = 1.73951e-08, cumulative = 0.020839
smoothSolver:  Solving for omega, Initial residual = 4.52449e-08, Final residual = 7.88521e-09, No Iterations 3
smoothSolver:  Solving for k, Initial residual = 1.28062e-07, Final residual = 1.0863e-08, No Iterations 5
ExecutionTime = 7.31 s  ClockTime = 7 s

scalarTransport execute: age
smoothSolver:  Solving for age, Initial residual = 0.000294107, Final residual = 2.74271e-05, No Iterations 15

Time = 573

smoothSolver:  Solving for Ux, Initial residual = 3.30556e-07, Final residual = 2.79829e-08, No Iterations 5
smoothSolver:  Solving for Uy, Initial residual = 2.17133e-07, Final residual = 1.73364e-08, No Iterations 5
GAMG:  Solving for p, Initial residual = 1.20947e-06, Final residual = 8.47888e-08, No Iterations 2
time step continuity errors : sum local = 1.71198e-07, global = 1.70355e-08, cumulative = 0.0208391
smoothSolver:  Solving for omega, Initial residual = 4.43436e-08, Final residual = 7.734e-09, No Iterations 3
smoothSolver:  Solving for k, Initial residual = 1.25251e-07, Final residual = 1.06263e-08, No Iterations 5
ExecutionTime = 7.33 s  ClockTime = 7 s

scalarTransport execute: age
smoothSolver:  Solving for age, Initial residual = 0.000293479, Final residual = 2.73693e-05, No Iterations 15

Time = 574

smoothSolver:  Solving for Ux, Initial residual = 3.23504e-07, Final residual = 2.73849e-08, No Iterations 5
smoothSolver:  Solving for Uy, Initial residual = 2.12498e-07, Final residual = 1.69645e-08, No Iterations 5
GAMG:  Solving for p, Initial residual = 1.18392e-06, Final residual = 8.2999e-08, No Iterations 2
time step continuity errors : sum local = 1.67584e-07, global = 1.66828e-08, cumulative = 0.0208391
smoothSolver:  Solving for omega, Initial residual = 4.34539e-08, Final residual = 7.58415e-09, No Iterations 3
smoothSolver:  Solving for k, Initial residual = 1.22512e-07, Final residual = 1.03959e-08, No Iterations 5
ExecutionTime = 7.34 s  ClockTime = 7 s

scalarTransport execute: age
smoothSolver:  Solving for age, Initial residual = 0.000292853, Final residual = 2.73118e-05, No Iterations 15

Time = 575

smoothSolver:  Solving for Ux, Initial residual = 3.16604e-07, Final residual = 2.67995e-08, No Iterations 5
smoothSolver:  Solving for Uy, Initial residual = 2.07967e-07, Final residual = 1.66014e-08, No Iterations 5
GAMG:  Solving for p, Initial residual = 1.15891e-06, Final residual = 8.12459e-08, No Iterations 2
time step continuity errors : sum local = 1.64045e-07, global = 1.63369e-08, cumulative = 0.0208391
smoothSolver:  Solving for omega, Initial residual = 4.25765e-08, Final residual = 7.43594e-09, No Iterations 3
smoothSolver:  Solving for k, Initial residual = 1.19844e-07, Final residual = 1.01717e-08, No Iterations 5
ExecutionTime = 7.35 s  ClockTime = 7 s

scalarTransport execute: age
smoothSolver:  Solving for age, Initial residual = 0.00029223, Final residual = 2.72544e-05, No Iterations 15

Time = 576

smoothSolver:  Solving for Ux, Initial residual = 3.0985e-07, Final residual = 2.62265e-08, No Iterations 5
smoothSolver:  Solving for Uy, Initial residual = 2.03536e-07, Final residual = 1.62469e-08, No Iterations 5
GAMG:  Solving for p, Initial residual = 1.13444e-06, Final residual = 7.95292e-08, No Iterations 2
time step continuity errors : sum local = 1.60578e-07, global = 1.59978e-08, cumulative = 0.0208391
smoothSolver:  Solving for omega, Initial residual = 4.17123e-08, Final residual = 7.28947e-09, No Iterations 3
smoothSolver:  Solving for k, Initial residual = 1.17245e-07, Final residual = 9.95351e-09, No Iterations 5
ExecutionTime = 7.36 s  ClockTime = 7 s

scalarTransport execute: age
smoothSolver:  Solving for age, Initial residual = 0.00029161, Final residual = 2.71973e-05, No Iterations 15

Time = 577

smoothSolver:  Solving for Ux, Initial residual = 3.03238e-07, Final residual = 2.56656e-08, No Iterations 5
smoothSolver:  Solving for Uy, Initial residual = 1.99207e-07, Final residual = 1.59008e-08, No Iterations 5
GAMG:  Solving for p, Initial residual = 1.11051e-06, Final residual = 7.78481e-08, No Iterations 2
time step continuity errors : sum local = 1.57184e-07, global = 1.56653e-08, cumulative = 0.0208391
smoothSolver:  Solving for omega, Initial residual = 4.0862e-08, Final residual = 7.1449e-09, No Iterations 3
smoothSolver:  Solving for k, Initial residual = 1.14713e-07, Final residual = 9.74106e-09, No Iterations 5
ExecutionTime = 7.38 s  ClockTime = 7 s

scalarTransport execute: age
smoothSolver:  Solving for age, Initial residual = 0.000290992, Final residual = 2.71405e-05, No Iterations 15

Time = 578

smoothSolver:  Solving for Ux, Initial residual = 2.96767e-07, Final residual = 2.51168e-08, No Iterations 5
smoothSolver:  Solving for Uy, Initial residual = 1.94977e-07, Final residual = 1.55629e-08, No Iterations 5
GAMG:  Solving for p, Initial residual = 1.0871e-06, Final residual = 7.62023e-08, No Iterations 2
time step continuity errors : sum local = 1.53861e-07, global = 1.53393e-08, cumulative = 0.0208391
smoothSolver:  Solving for omega, Initial residual = 4.00261e-08, Final residual = 7.00233e-09, No Iterations 3
smoothSolver:  Solving for k, Initial residual = 1.12248e-07, Final residual = 9.53419e-09, No Iterations 5
ExecutionTime = 7.39 s  ClockTime = 7 s

scalarTransport execute: age
smoothSolver:  Solving for age, Initial residual = 0.000290377, Final residual = 2.70838e-05, No Iterations 15

Time = 579

smoothSolver:  Solving for Ux, Initial residual = 2.90436e-07, Final residual = 2.45799e-08, No Iterations 5
smoothSolver:  Solving for Uy, Initial residual = 1.90845e-07, Final residual = 1.52331e-08, No Iterations 5
GAMG:  Solving for p, Initial residual = 1.0642e-06, Final residual = 7.45914e-08, No Iterations 2
time step continuity errors : sum local = 1.50609e-07, global = 1.50198e-08, cumulative = 0.0208391
smoothSolver:  Solving for omega, Initial residual = 3.92049e-08, Final residual = 6.86181e-09, No Iterations 3
smoothSolver:  Solving for k, Initial residual = 1.09845e-07, Final residual = 9.33264e-09, No Iterations 5
ExecutionTime = 7.4 s  ClockTime = 7 s

scalarTransport execute: age
smoothSolver:  Solving for age, Initial residual = 0.000289767, Final residual = 2.70274e-05, No Iterations 15

Time = 580

smoothSolver:  Solving for Ux, Initial residual = 2.84244e-07, Final residual = 2.40546e-08, No Iterations 5
smoothSolver:  Solving for Uy, Initial residual = 1.8681e-07, Final residual = 1.4911e-08, No Iterations 5
GAMG:  Solving for p, Initial residual = 1.04182e-06, Final residual = 7.30152e-08, No Iterations 2
time step continuity errors : sum local = 1.47426e-07, global = 1.47066e-08, cumulative = 0.0208392
smoothSolver:  Solving for omega, Initial residual = 3.83985e-08, Final residual = 6.72341e-09, No Iterations 3
smoothSolver:  Solving for k, Initial residual = 1.07504e-07, Final residual = 9.13629e-09, No Iterations 5
ExecutionTime = 7.41 s  ClockTime = 7 s

scalarTransport execute: age
smoothSolver:  Solving for age, Initial residual = 0.00028917, Final residual = 2.69711e-05, No Iterations 15

Time = 581

smoothSolver:  Solving for Ux, Initial residual = 2.78189e-07, Final residual = 2.35409e-08, No Iterations 5
smoothSolver:  Solving for Uy, Initial residual = 1.8287e-07, Final residual = 1.45964e-08, No Iterations 5
GAMG:  Solving for p, Initial residual = 1.01994e-06, Final residual = 7.1473e-08, No Iterations 2
time step continuity errors : sum local = 1.44312e-07, global = 1.43996e-08, cumulative = 0.0208392
smoothSolver:  Solving for omega, Initial residual = 3.76068e-08, Final residual = 6.58717e-09, No Iterations 3
smoothSolver:  Solving for k, Initial residual = 1.05223e-07, Final residual = 8.94491e-09, No Iterations 5
ExecutionTime = 7.43 s  ClockTime = 7 s

scalarTransport execute: age
smoothSolver:  Solving for age, Initial residual = 0.000288578, Final residual = 2.69153e-05, No Iterations 15

Time = 582

smoothSolver:  Solving for Ux, Initial residual = 2.72269e-07, Final residual = 2.30386e-08, No Iterations 5
smoothSolver:  Solving for Uy, Initial residual = 1.79022e-07, Final residual = 1.42893e-08, No Iterations 5
GAMG:  Solving for p, Initial residual = 9.98543e-07, Final residual = 6.99644e-08, No Iterations 2
time step continuity errors : sum local = 1.41266e-07, global = 1.40987e-08, cumulative = 0.0208392
smoothSolver:  Solving for omega, Initial residual = 3.68297e-08, Final residual = 6.45313e-09, No Iterations 3
smoothSolver:  Solving for k, Initial residual = 1.02998e-07, Final residual = 8.7583e-09, No Iterations 5
ExecutionTime = 7.44 s  ClockTime = 7 s


SIMPLE solution converged in 582 iterations

scalarTransport execute: age
smoothSolver:  Solving for age, Initial residual = 0.000288019, Final residual = 2.68598e-05, No Iterations 15

End

