/*---------------------------------------------------------------------------*\
| =========                 |                                                 |
| \\      /  F ield         | OpenFOAM: The Open Source CFD Toolbox           |
|  \\    /   O peration     | Version:  v2012                                 |
|   \\  /    A nd           | Website:  www.openfoam.com                      |
|    \\/     M anipulation  |                                                 |
\*---------------------------------------------------------------------------*/
Build  : _7bdb509494-20201222 OPENFOAM=2012
Arch   : "LSB;label=32;scalar=64"
Exec   : simpleFoam
Date   : Feb 24 2023
Time   : 02:11:53
Host   : johnsDesktop
PID    : 21996
I/O    : uncollated
Case   : /home/john/of_runs/cases/dbl_0_58_89_2
nProcs : 1
trapFpe: Floating point exception trapping enabled (FOAM_SIGFPE).
fileModificationChecking : Monitoring run-time modified files using timeStampMaster (fileModificationSkew 5, maxFileModificationPolls 20)
allowSystemOperations : Allowing user-supplied system call operations

// * * * * * * * * * * * * * * * * * * * * * * * * * * * * * * * * * * * * * //
Create time

Create mesh for time = 0


SIMPLE: convergence criteria
    field p	 tolerance 1e-06
    field U	 tolerance 1e-06
    field "(k|epsilon|omega|f|v2|age)"	 tolerance 1e-05

Reading field p

Reading field U

Reading/calculating face flux field phi

Selecting incompressible transport model Newtonian
Selecting turbulence model type RAS
Selecting RAS turbulence model kOmegaSST
Selecting patchDistMethod meshWave
RAS
{
    RASModel        kOmegaSST;
    turbulence      on;
    printCoeffs     on;
    alphaK1         0.85;
    alphaK2         1;
    alphaOmega1     0.5;
    alphaOmega2     0.856;
    gamma1          0.555556;
    gamma2          0.44;
    beta1           0.075;
    beta2           0.0828;
    betaStar        0.09;
    a1              0.31;
    b1              1;
    c1              10;
    F3              false;
    decayControl    false;
    kInf            0;
    omegaInf        0;
}

No MRF models present

No finite volume options present

Starting time loop

Selecting finite volume options type scalarSemiImplicitSource
    Source: unitySource
    - selecting all cells
    - selected 6502 cell(s) with volume 0.03142
Time = 1

smoothSolver:  Solving for Ux, Initial residual = 0, Final residual = 0, No Iterations 0
smoothSolver:  Solving for Uy, Initial residual = 1, Final residual = 0.0768842, No Iterations 1
GAMG:  Solving for p, Initial residual = 1, Final residual = 0.0568885, No Iterations 7
time step continuity errors : sum local = 0.00362117, global = -0.000387922, cumulative = -0.000387922
smoothSolver:  Solving for omega, Initial residual = 0.0293292, Final residual = 0.00123637, No Iterations 3
smoothSolver:  Solving for k, Initial residual = 1, Final residual = 0.044014, No Iterations 2
ExecutionTime = 0.07 s  ClockTime = 0 s

scalarTransport execute: age
smoothSolver:  Solving for age, Initial residual = 1, Final residual = 0.0990528, No Iterations 6

Time = 2

smoothSolver:  Solving for Ux, Initial residual = 0.430445, Final residual = 0.0411099, No Iterations 5
smoothSolver:  Solving for Uy, Initial residual = 0.259542, Final residual = 0.0160841, No Iterations 5
GAMG:  Solving for p, Initial residual = 0.0580021, Final residual = 0.00210864, No Iterations 4
time step continuity errors : sum local = 0.0165438, global = 0.00132464, cumulative = 0.000936718
smoothSolver:  Solving for omega, Initial residual = 0.0545426, Final residual = 0.00320656, No Iterations 1
smoothSolver:  Solving for k, Initial residual = 0.21875, Final residual = 0.0145587, No Iterations 3
ExecutionTime = 0.08 s  ClockTime = 0 s

scalarTransport execute: age
smoothSolver:  Solving for age, Initial residual = 0.54626, Final residual = 0.0468025, No Iterations 8

Time = 3

smoothSolver:  Solving for Ux, Initial residual = 0.167544, Final residual = 0.011152, No Iterations 5
smoothSolver:  Solving for Uy, Initial residual = 0.101241, Final residual = 0.00829549, No Iterations 4
GAMG:  Solving for p, Initial residual = 0.0453974, Final residual = 0.0033601, No Iterations 3
time step continuity errors : sum local = 0.0147177, global = 0.00107745, cumulative = 0.00201417
smoothSolver:  Solving for omega, Initial residual = 0.00745277, Final residual = 0.000354357, No Iterations 2
smoothSolver:  Solving for k, Initial residual = 0.112609, Final residual = 0.011234, No Iterations 3
ExecutionTime = 0.09 s  ClockTime = 0 s

scalarTransport execute: age
smoothSolver:  Solving for age, Initial residual = 0.279458, Final residual = 0.0277072, No Iterations 8

Time = 4

smoothSolver:  Solving for Ux, Initial residual = 0.0871675, Final residual = 0.00833802, No Iterations 4
smoothSolver:  Solving for Uy, Initial residual = 0.059287, Final residual = 0.00461338, No Iterations 4
GAMG:  Solving for p, Initial residual = 0.0504336, Final residual = 0.00467928, No Iterations 2
time step continuity errors : sum local = 0.015339, global = 0.00212106, cumulative = 0.00413523
smoothSolver:  Solving for omega, Initial residual = 0.00386789, Final residual = 0.000246291, No Iterations 2
smoothSolver:  Solving for k, Initial residual = 0.0749826, Final residual = 0.00552843, No Iterations 4
ExecutionTime = 0.1 s  ClockTime = 0 s

scalarTransport execute: age
smoothSolver:  Solving for age, Initial residual = 0.140923, Final residual = 0.013562, No Iterations 9

Time = 5

smoothSolver:  Solving for Ux, Initial residual = 0.0646107, Final residual = 0.00414854, No Iterations 5
smoothSolver:  Solving for Uy, Initial residual = 0.046455, Final residual = 0.00379851, No Iterations 4
GAMG:  Solving for p, Initial residual = 0.0448387, Final residual = 0.00221198, No Iterations 3
time step continuity errors : sum local = 0.00685453, global = 0.000390876, cumulative = 0.0045261
smoothSolver:  Solving for omega, Initial residual = 0.00174838, Final residual = 0.000148408, No Iterations 2
smoothSolver:  Solving for k, Initial residual = 0.0581169, Final residual = 0.0048799, No Iterations 4
ExecutionTime = 0.11 s  ClockTime = 0 s

scalarTransport execute: age
smoothSolver:  Solving for age, Initial residual = 0.0987246, Final residual = 0.00876745, No Iterations 10

Time = 6

smoothSolver:  Solving for Ux, Initial residual = 0.0545877, Final residual = 0.00346509, No Iterations 5
smoothSolver:  Solving for Uy, Initial residual = 0.0407429, Final residual = 0.00361478, No Iterations 4
GAMG:  Solving for p, Initial residual = 0.0429272, Final residual = 0.00355474, No Iterations 2
time step continuity errors : sum local = 0.0100852, global = -0.00013155, cumulative = 0.00439455
smoothSolver:  Solving for omega, Initial residual = 0.00101586, Final residual = 5.88241e-05, No Iterations 3
smoothSolver:  Solving for k, Initial residual = 0.0473444, Final residual = 0.0043602, No Iterations 4
ExecutionTime = 0.12 s  ClockTime = 0 s

scalarTransport execute: age
smoothSolver:  Solving for age, Initial residual = 0.0759979, Final residual = 0.00718576, No Iterations 10

Time = 7

smoothSolver:  Solving for Ux, Initial residual = 0.0241147, Final residual = 0.00233507, No Iterations 4
smoothSolver:  Solving for Uy, Initial residual = 0.0373542, Final residual = 0.00348954, No Iterations 4
GAMG:  Solving for p, Initial residual = 0.0384102, Final residual = 0.00332886, No Iterations 2
time step continuity errors : sum local = 0.00960795, global = -0.000103423, cumulative = 0.00429113
smoothSolver:  Solving for omega, Initial residual = 0.000585301, Final residual = 3.88916e-05, No Iterations 3
smoothSolver:  Solving for k, Initial residual = 0.0401038, Final residual = 0.00392884, No Iterations 4
ExecutionTime = 0.14 s  ClockTime = 0 s

scalarTransport execute: age
smoothSolver:  Solving for age, Initial residual = 0.062176, Final residual = 0.00606847, No Iterations 10

Time = 8

smoothSolver:  Solving for Ux, Initial residual = 0.0463501, Final residual = 0.00318835, No Iterations 5
smoothSolver:  Solving for Uy, Initial residual = 0.0340069, Final residual = 0.00337541, No Iterations 4
GAMG:  Solving for p, Initial residual = 0.0361584, Final residual = 0.00296561, No Iterations 2
time step continuity errors : sum local = 0.00869699, global = -0.000120844, cumulative = 0.00417029
smoothSolver:  Solving for omega, Initial residual = 0.00038407, Final residual = 2.98576e-05, No Iterations 3
smoothSolver:  Solving for k, Initial residual = 0.0349995, Final residual = 0.00209557, No Iterations 5
ExecutionTime = 0.15 s  ClockTime = 0 s

scalarTransport execute: age
smoothSolver:  Solving for age, Initial residual = 0.0524717, Final residual = 0.00471989, No Iterations 11

Time = 9

smoothSolver:  Solving for Ux, Initial residual = 0.0435205, Final residual = 0.00300474, No Iterations 5
smoothSolver:  Solving for Uy, Initial residual = 0.0321244, Final residual = 0.00199895, No Iterations 5
GAMG:  Solving for p, Initial residual = 0.0352007, Final residual = 0.00264014, No Iterations 2
time step continuity errors : sum local = 0.00784714, global = -8.27367e-05, cumulative = 0.00408755
smoothSolver:  Solving for omega, Initial residual = 0.000300103, Final residual = 2.28918e-05, No Iterations 3
smoothSolver:  Solving for k, Initial residual = 0.0312709, Final residual = 0.00192209, No Iterations 5
ExecutionTime = 0.16 s  ClockTime = 0 s

scalarTransport execute: age
smoothSolver:  Solving for age, Initial residual = 0.0478125, Final residual = 0.00441319, No Iterations 11

Time = 10

smoothSolver:  Solving for Ux, Initial residual = 0.0411009, Final residual = 0.0028063, No Iterations 5
smoothSolver:  Solving for Uy, Initial residual = 0.0304265, Final residual = 0.00186639, No Iterations 5
GAMG:  Solving for p, Initial residual = 0.0346861, Final residual = 0.00255461, No Iterations 2
time step continuity errors : sum local = 0.00766882, global = 3.10904e-05, cumulative = 0.00411864
smoothSolver:  Solving for omega, Initial residual = 0.000227268, Final residual = 1.83464e-05, No Iterations 3
smoothSolver:  Solving for k, Initial residual = 0.0284172, Final residual = 0.00177201, No Iterations 5
ExecutionTime = 0.17 s  ClockTime = 0 s

scalarTransport execute: age
smoothSolver:  Solving for age, Initial residual = 0.0457872, Final residual = 0.0041593, No Iterations 11

Time = 11

smoothSolver:  Solving for Ux, Initial residual = 0.0390032, Final residual = 0.0026051, No Iterations 5
smoothSolver:  Solving for Uy, Initial residual = 0.0289174, Final residual = 0.00285597, No Iterations 4
GAMG:  Solving for p, Initial residual = 0.0342271, Final residual = 0.00254731, No Iterations 2
time step continuity errors : sum local = 0.00770524, global = 0.000200189, cumulative = 0.00431883
smoothSolver:  Solving for omega, Initial residual = 0.000204541, Final residual = 1.4993e-05, No Iterations 3
smoothSolver:  Solving for k, Initial residual = 0.0261518, Final residual = 0.00163798, No Iterations 5
ExecutionTime = 0.19 s  ClockTime = 0 s

scalarTransport execute: age
smoothSolver:  Solving for age, Initial residual = 0.0445885, Final residual = 0.00390921, No Iterations 11

Time = 12

smoothSolver:  Solving for Ux, Initial residual = 0.0368113, Final residual = 0.00237581, No Iterations 5
smoothSolver:  Solving for Uy, Initial residual = 0.027654, Final residual = 0.00269154, No Iterations 4
GAMG:  Solving for p, Initial residual = 0.0341641, Final residual = 0.00251453, No Iterations 2
time step continuity errors : sum local = 0.00765747, global = 0.00044063, cumulative = 0.00475946
smoothSolver:  Solving for omega, Initial residual = 0.00019342, Final residual = 1.24802e-05, No Iterations 3
smoothSolver:  Solving for k, Initial residual = 0.0242827, Final residual = 0.00151749, No Iterations 5
ExecutionTime = 0.2 s  ClockTime = 0 s

scalarTransport execute: age
smoothSolver:  Solving for age, Initial residual = 0.0432105, Final residual = 0.00426205, No Iterations 10

Time = 13

smoothSolver:  Solving for Ux, Initial residual = 0.0347727, Final residual = 0.00216932, No Iterations 5
smoothSolver:  Solving for Uy, Initial residual = 0.0259322, Final residual = 0.0025126, No Iterations 4
GAMG:  Solving for p, Initial residual = 0.0335012, Final residual = 0.00245396, No Iterations 2
time step continuity errors : sum local = 0.00751644, global = 0.000640443, cumulative = 0.0053999
smoothSolver:  Solving for omega, Initial residual = 0.000175859, Final residual = 1.05889e-05, No Iterations 3
smoothSolver:  Solving for k, Initial residual = 0.022731, Final residual = 0.00140636, No Iterations 5
ExecutionTime = 0.21 s  ClockTime = 0 s

scalarTransport execute: age
smoothSolver:  Solving for age, Initial residual = 0.0409198, Final residual = 0.00403336, No Iterations 10

Time = 14

smoothSolver:  Solving for Ux, Initial residual = 0.0323399, Final residual = 0.00195365, No Iterations 5
smoothSolver:  Solving for Uy, Initial residual = 0.0239428, Final residual = 0.00232437, No Iterations 4
GAMG:  Solving for p, Initial residual = 0.0324878, Final residual = 0.00243592, No Iterations 2
time step continuity errors : sum local = 0.00746176, global = 0.000804441, cumulative = 0.00620434
smoothSolver:  Solving for omega, Initial residual = 0.000177967, Final residual = 9.16618e-06, No Iterations 3
smoothSolver:  Solving for k, Initial residual = 0.0213578, Final residual = 0.00130199, No Iterations 5
ExecutionTime = 0.22 s  ClockTime = 0 s

scalarTransport execute: age
smoothSolver:  Solving for age, Initial residual = 0.0378828, Final residual = 0.00327302, No Iterations 11

Time = 15

smoothSolver:  Solving for Ux, Initial residual = 0.0301196, Final residual = 0.00297188, No Iterations 4
smoothSolver:  Solving for Uy, Initial residual = 0.0218632, Final residual = 0.00213602, No Iterations 4
GAMG:  Solving for p, Initial residual = 0.0305378, Final residual = 0.00230807, No Iterations 2
time step continuity errors : sum local = 0.00704889, global = 0.000922078, cumulative = 0.00712642
smoothSolver:  Solving for omega, Initial residual = 0.000170552, Final residual = 1.68323e-05, No Iterations 2
smoothSolver:  Solving for k, Initial residual = 0.0201055, Final residual = 0.00120676, No Iterations 5
ExecutionTime = 0.23 s  ClockTime = 0 s

scalarTransport execute: age
smoothSolver:  Solving for age, Initial residual = 0.0341045, Final residual = 0.0030101, No Iterations 11

Time = 16

smoothSolver:  Solving for Ux, Initial residual = 0.0271023, Final residual = 0.00264986, No Iterations 4
smoothSolver:  Solving for Uy, Initial residual = 0.0199018, Final residual = 0.00194243, No Iterations 4
GAMG:  Solving for p, Initial residual = 0.0289556, Final residual = 0.00226286, No Iterations 2
time step continuity errors : sum local = 0.00686687, global = 0.000968985, cumulative = 0.0080954
smoothSolver:  Solving for omega, Initial residual = 0.000148821, Final residual = 7.41461e-06, No Iterations 3
smoothSolver:  Solving for k, Initial residual = 0.0188656, Final residual = 0.00111287, No Iterations 5
ExecutionTime = 0.25 s  ClockTime = 0 s

scalarTransport execute: age
smoothSolver:  Solving for age, Initial residual = 0.0300967, Final residual = 0.00275095, No Iterations 11

Time = 17

smoothSolver:  Solving for Ux, Initial residual = 0.0253144, Final residual = 0.00247331, No Iterations 4
smoothSolver:  Solving for Uy, Initial residual = 0.0180113, Final residual = 0.00177606, No Iterations 4
GAMG:  Solving for p, Initial residual = 0.0273876, Final residual = 0.0021886, No Iterations 2
time step continuity errors : sum local = 0.0065747, global = 0.000939949, cumulative = 0.00903535
smoothSolver:  Solving for omega, Initial residual = 0.000148537, Final residual = 1.33712e-05, No Iterations 2
smoothSolver:  Solving for k, Initial residual = 0.0176922, Final residual = 0.00175736, No Iterations 4
ExecutionTime = 0.26 s  ClockTime = 0 s

scalarTransport execute: age
smoothSolver:  Solving for age, Initial residual = 0.0260954, Final residual = 0.00248519, No Iterations 11

Time = 18

smoothSolver:  Solving for Ux, Initial residual = 0.0230774, Final residual = 0.00226259, No Iterations 4
smoothSolver:  Solving for Uy, Initial residual = 0.0164098, Final residual = 0.00163227, No Iterations 4
GAMG:  Solving for p, Initial residual = 0.0256554, Final residual = 0.002136, No Iterations 2
time step continuity errors : sum local = 0.00633428, global = 0.000895044, cumulative = 0.0099304
smoothSolver:  Solving for omega, Initial residual = 0.000136575, Final residual = 1.27046e-05, No Iterations 2
smoothSolver:  Solving for k, Initial residual = 0.0165521, Final residual = 0.00162091, No Iterations 4
ExecutionTime = 0.27 s  ClockTime = 0 s

scalarTransport execute: age
smoothSolver:  Solving for age, Initial residual = 0.0230306, Final residual = 0.00200564, No Iterations 12

Time = 19

smoothSolver:  Solving for Ux, Initial residual = 0.0209614, Final residual = 0.00207746, No Iterations 4
smoothSolver:  Solving for Uy, Initial residual = 0.0149497, Final residual = 0.000912991, No Iterations 5
GAMG:  Solving for p, Initial residual = 0.0241098, Final residual = 0.00196356, No Iterations 2
time step continuity errors : sum local = 0.00575063, global = 0.000843012, cumulative = 0.0107734
smoothSolver:  Solving for omega, Initial residual = 0.000121342, Final residual = 1.16012e-05, No Iterations 2
smoothSolver:  Solving for k, Initial residual = 0.0154038, Final residual = 0.00149174, No Iterations 4
ExecutionTime = 0.28 s  ClockTime = 0 s

scalarTransport execute: age
smoothSolver:  Solving for age, Initial residual = 0.0207617, Final residual = 0.0019396, No Iterations 12

Time = 20

smoothSolver:  Solving for Ux, Initial residual = 0.0193208, Final residual = 0.00116982, No Iterations 5
smoothSolver:  Solving for Uy, Initial residual = 0.0135402, Final residual = 0.000830122, No Iterations 5
GAMG:  Solving for p, Initial residual = 0.0225682, Final residual = 0.00185725, No Iterations 2
time step continuity errors : sum local = 0.00536285, global = 0.000750297, cumulative = 0.0115237
smoothSolver:  Solving for omega, Initial residual = 0.000104322, Final residual = 4.9687e-06, No Iterations 3
smoothSolver:  Solving for k, Initial residual = 0.0142246, Final residual = 0.0013666, No Iterations 4
ExecutionTime = 0.29 s  ClockTime = 0 s

scalarTransport execute: age
smoothSolver:  Solving for age, Initial residual = 0.0195165, Final residual = 0.00195074, No Iterations 12

Time = 21

smoothSolver:  Solving for Ux, Initial residual = 0.0177373, Final residual = 0.00109065, No Iterations 5
smoothSolver:  Solving for Uy, Initial residual = 0.0123923, Final residual = 0.000770351, No Iterations 5
GAMG:  Solving for p, Initial residual = 0.0205187, Final residual = 0.00160681, No Iterations 2
time step continuity errors : sum local = 0.00457326, global = 0.000620539, cumulative = 0.0121442
smoothSolver:  Solving for omega, Initial residual = 9.91774e-05, Final residual = 9.2261e-06, No Iterations 2
smoothSolver:  Solving for k, Initial residual = 0.0130799, Final residual = 0.00125209, No Iterations 4
ExecutionTime = 0.3 s  ClockTime = 0 s

scalarTransport execute: age
smoothSolver:  Solving for age, Initial residual = 0.0193458, Final residual = 0.00183186, No Iterations 13

Time = 22

smoothSolver:  Solving for Ux, Initial residual = 0.0163468, Final residual = 0.00103098, No Iterations 5
smoothSolver:  Solving for Uy, Initial residual = 0.0114116, Final residual = 0.000721812, No Iterations 5
GAMG:  Solving for p, Initial residual = 0.0184831, Final residual = 0.00146899, No Iterations 2
time step continuity errors : sum local = 0.00412323, global = 0.000487, cumulative = 0.0126312
smoothSolver:  Solving for omega, Initial residual = 9.11278e-05, Final residual = 8.67753e-06, No Iterations 2
smoothSolver:  Solving for k, Initial residual = 0.0119822, Final residual = 0.00114924, No Iterations 4
ExecutionTime = 0.32 s  ClockTime = 0 s

scalarTransport execute: age
smoothSolver:  Solving for age, Initial residual = 0.0197484, Final residual = 0.00196221, No Iterations 13

Time = 23

smoothSolver:  Solving for Ux, Initial residual = 0.0151757, Final residual = 0.000986002, No Iterations 5
smoothSolver:  Solving for Uy, Initial residual = 0.0104966, Final residual = 0.000676641, No Iterations 5
GAMG:  Solving for p, Initial residual = 0.0168507, Final residual = 0.00143033, No Iterations 2
time step continuity errors : sum local = 0.00396461, global = 0.000375932, cumulative = 0.0130072
smoothSolver:  Solving for omega, Initial residual = 0.000102959, Final residual = 8.81366e-06, No Iterations 2
smoothSolver:  Solving for k, Initial residual = 0.0109643, Final residual = 0.00105795, No Iterations 4
ExecutionTime = 0.33 s  ClockTime = 0 s

scalarTransport execute: age
smoothSolver:  Solving for age, Initial residual = 0.019626, Final residual = 0.0019612, No Iterations 13

Time = 24

smoothSolver:  Solving for Ux, Initial residual = 0.0141294, Final residual = 0.000948802, No Iterations 5
smoothSolver:  Solving for Uy, Initial residual = 0.00962506, Final residual = 0.000631838, No Iterations 5
GAMG:  Solving for p, Initial residual = 0.0153606, Final residual = 0.00137798, No Iterations 2
time step continuity errors : sum local = 0.0037783, global = 0.00028328, cumulative = 0.0132905
smoothSolver:  Solving for omega, Initial residual = 9.62235e-05, Final residual = 8.6041e-06, No Iterations 2
smoothSolver:  Solving for k, Initial residual = 0.0100786, Final residual = 0.000978583, No Iterations 4
ExecutionTime = 0.34 s  ClockTime = 0 s

scalarTransport execute: age
smoothSolver:  Solving for age, Initial residual = 0.0190749, Final residual = 0.00188034, No Iterations 13

Time = 25

smoothSolver:  Solving for Ux, Initial residual = 0.0132999, Final residual = 0.000919571, No Iterations 5
smoothSolver:  Solving for Uy, Initial residual = 0.00882587, Final residual = 0.000589702, No Iterations 5
GAMG:  Solving for p, Initial residual = 0.0138615, Final residual = 0.00129214, No Iterations 2
time step continuity errors : sum local = 0.00350852, global = 0.000198573, cumulative = 0.013489
smoothSolver:  Solving for omega, Initial residual = 9.07115e-05, Final residual = 8.10019e-06, No Iterations 2
smoothSolver:  Solving for k, Initial residual = 0.00931907, Final residual = 0.000910851, No Iterations 4
ExecutionTime = 0.35 s  ClockTime = 0 s

scalarTransport execute: age
smoothSolver:  Solving for age, Initial residual = 0.0178563, Final residual = 0.00171135, No Iterations 13

Time = 26

smoothSolver:  Solving for Ux, Initial residual = 0.012678, Final residual = 0.000895608, No Iterations 5
smoothSolver:  Solving for Uy, Initial residual = 0.00809805, Final residual = 0.000553876, No Iterations 5
GAMG:  Solving for p, Initial residual = 0.0125236, Final residual = 0.00120375, No Iterations 2
time step continuity errors : sum local = 0.00324087, global = 0.000141954, cumulative = 0.013631
smoothSolver:  Solving for omega, Initial residual = 8.39857e-05, Final residual = 7.7113e-06, No Iterations 2
smoothSolver:  Solving for k, Initial residual = 0.00864223, Final residual = 0.000849823, No Iterations 4
ExecutionTime = 0.36 s  ClockTime = 0 s

scalarTransport execute: age
smoothSolver:  Solving for age, Initial residual = 0.0164349, Final residual = 0.00149566, No Iterations 13

Time = 27

smoothSolver:  Solving for Ux, Initial residual = 0.0120933, Final residual = 0.000870247, No Iterations 5
smoothSolver:  Solving for Uy, Initial residual = 0.00750054, Final residual = 0.000523623, No Iterations 5
GAMG:  Solving for p, Initial residual = 0.0114122, Final residual = 0.00113034, No Iterations 2
time step continuity errors : sum local = 0.00302481, global = 9.77127e-05, cumulative = 0.0137287
smoothSolver:  Solving for omega, Initial residual = 8.2351e-05, Final residual = 7.3187e-06, No Iterations 2
smoothSolver:  Solving for k, Initial residual = 0.0080214, Final residual = 0.000793421, No Iterations 4
ExecutionTime = 0.38 s  ClockTime = 0 s

scalarTransport execute: age
smoothSolver:  Solving for age, Initial residual = 0.0150661, Final residual = 0.00147265, No Iterations 12

Time = 28

smoothSolver:  Solving for Ux, Initial residual = 0.0115508, Final residual = 0.000842518, No Iterations 5
smoothSolver:  Solving for Uy, Initial residual = 0.00702265, Final residual = 0.000497467, No Iterations 5
GAMG:  Solving for p, Initial residual = 0.0103834, Final residual = 0.000517704, No Iterations 3
time step continuity errors : sum local = 0.00137836, global = 5.66096e-05, cumulative = 0.0137853
smoothSolver:  Solving for omega, Initial residual = 8.65355e-05, Final residual = 7.00858e-06, No Iterations 2
smoothSolver:  Solving for k, Initial residual = 0.00748702, Final residual = 0.000743188, No Iterations 4
ExecutionTime = 0.39 s  ClockTime = 0 s

scalarTransport execute: age
smoothSolver:  Solving for age, Initial residual = 0.0138859, Final residual = 0.00125896, No Iterations 12

Time = 29

smoothSolver:  Solving for Ux, Initial residual = 0.0110112, Final residual = 0.000806321, No Iterations 5
smoothSolver:  Solving for Uy, Initial residual = 0.00675549, Final residual = 0.000485374, No Iterations 5
GAMG:  Solving for p, Initial residual = 0.00925861, Final residual = 0.000830739, No Iterations 2
time step continuity errors : sum local = 0.00219953, global = 1.37997e-05, cumulative = 0.0137991
smoothSolver:  Solving for omega, Initial residual = 7.51564e-05, Final residual = 6.71914e-06, No Iterations 2
smoothSolver:  Solving for k, Initial residual = 0.00698295, Final residual = 0.00069481, No Iterations 4
ExecutionTime = 0.4 s  ClockTime = 0 s

scalarTransport execute: age
smoothSolver:  Solving for age, Initial residual = 0.01295, Final residual = 0.00125444, No Iterations 11

Time = 30

smoothSolver:  Solving for Ux, Initial residual = 0.0106156, Final residual = 0.000792053, No Iterations 5
smoothSolver:  Solving for Uy, Initial residual = 0.00637134, Final residual = 0.00045851, No Iterations 5
GAMG:  Solving for p, Initial residual = 0.00928425, Final residual = 0.00050638, No Iterations 3
time step continuity errors : sum local = 0.00133574, global = -3.88465e-06, cumulative = 0.0137952
smoothSolver:  Solving for omega, Initial residual = 6.22461e-05, Final residual = 3.06063e-06, No Iterations 3
smoothSolver:  Solving for k, Initial residual = 0.00653673, Final residual = 0.000650801, No Iterations 4
ExecutionTime = 0.41 s  ClockTime = 0 s

scalarTransport execute: age
smoothSolver:  Solving for age, Initial residual = 0.0121516, Final residual = 0.00109687, No Iterations 11

Time = 31

smoothSolver:  Solving for Ux, Initial residual = 0.0103223, Final residual = 0.000774348, No Iterations 5
smoothSolver:  Solving for Uy, Initial residual = 0.00617021, Final residual = 0.000449402, No Iterations 5
GAMG:  Solving for p, Initial residual = 0.00800855, Final residual = 0.000773167, No Iterations 2
time step continuity errors : sum local = 0.00203317, global = -1.47561e-05, cumulative = 0.0137805
smoothSolver:  Solving for omega, Initial residual = 5.31245e-05, Final residual = 2.81428e-06, No Iterations 3
smoothSolver:  Solving for k, Initial residual = 0.00616647, Final residual = 0.000609306, No Iterations 4
ExecutionTime = 0.42 s  ClockTime = 0 s

scalarTransport execute: age
smoothSolver:  Solving for age, Initial residual = 0.0115604, Final residual = 0.000999771, No Iterations 11

Time = 32

smoothSolver:  Solving for Ux, Initial residual = 0.010158, Final residual = 0.000775549, No Iterations 5
smoothSolver:  Solving for Uy, Initial residual = 0.00587789, Final residual = 0.000432812, No Iterations 5
GAMG:  Solving for p, Initial residual = 0.00802653, Final residual = 0.000484572, No Iterations 3
time step continuity errors : sum local = 0.00127096, global = 2.01532e-06, cumulative = 0.0137825
smoothSolver:  Solving for omega, Initial residual = 4.96008e-05, Final residual = 2.71924e-06, No Iterations 3
smoothSolver:  Solving for k, Initial residual = 0.00585709, Final residual = 0.000573446, No Iterations 4
ExecutionTime = 0.44 s  ClockTime = 0 s

scalarTransport execute: age
smoothSolver:  Solving for age, Initial residual = 0.0109837, Final residual = 0.00108656, No Iterations 10

Time = 33

smoothSolver:  Solving for Ux, Initial residual = 0.0096324, Final residual = 0.000729166, No Iterations 5
smoothSolver:  Solving for Uy, Initial residual = 0.00599723, Final residual = 0.000435018, No Iterations 5
GAMG:  Solving for p, Initial residual = 0.00731927, Final residual = 0.000375673, No Iterations 3
time step continuity errors : sum local = 0.000983111, global = 2.16788e-05, cumulative = 0.0138042
smoothSolver:  Solving for omega, Initial residual = 5.36868e-05, Final residual = 2.69337e-06, No Iterations 3
smoothSolver:  Solving for k, Initial residual = 0.00557156, Final residual = 0.000540088, No Iterations 4
ExecutionTime = 0.45 s  ClockTime = 0 s

scalarTransport execute: age
smoothSolver:  Solving for age, Initial residual = 0.010772, Final residual = 0.0010667, No Iterations 10

Time = 34

smoothSolver:  Solving for Ux, Initial residual = 0.00958575, Final residual = 0.00073777, No Iterations 5
smoothSolver:  Solving for Uy, Initial residual = 0.00577103, Final residual = 0.000430825, No Iterations 5
GAMG:  Solving for p, Initial residual = 0.00724502, Final residual = 0.000388842, No Iterations 3
time step continuity errors : sum local = 0.00101468, global = 4.14473e-05, cumulative = 0.0138456
smoothSolver:  Solving for omega, Initial residual = 4.87696e-05, Final residual = 2.68638e-06, No Iterations 3
smoothSolver:  Solving for k, Initial residual = 0.00528274, Final residual = 0.000509054, No Iterations 4
ExecutionTime = 0.46 s  ClockTime = 0 s

scalarTransport execute: age
smoothSolver:  Solving for age, Initial residual = 0.0108376, Final residual = 0.000935954, No Iterations 11

Time = 35

smoothSolver:  Solving for Ux, Initial residual = 0.00934084, Final residual = 0.000719997, No Iterations 5
smoothSolver:  Solving for Uy, Initial residual = 0.00573078, Final residual = 0.000429496, No Iterations 5
GAMG:  Solving for p, Initial residual = 0.00723786, Final residual = 0.000409405, No Iterations 3
time step continuity errors : sum local = 0.00106533, global = 5.9716e-05, cumulative = 0.0139053
smoothSolver:  Solving for omega, Initial residual = 4.95543e-05, Final residual = 2.74619e-06, No Iterations 3
smoothSolver:  Solving for k, Initial residual = 0.00499765, Final residual = 0.000479423, No Iterations 4
ExecutionTime = 0.47 s  ClockTime = 0 s

scalarTransport execute: age
smoothSolver:  Solving for age, Initial residual = 0.0109685, Final residual = 0.000951817, No Iterations 11

Time = 36

smoothSolver:  Solving for Ux, Initial residual = 0.0091935, Final residual = 0.0007165, No Iterations 5
smoothSolver:  Solving for Uy, Initial residual = 0.00572783, Final residual = 0.000430981, No Iterations 5
GAMG:  Solving for p, Initial residual = 0.0072709, Final residual = 0.000410858, No Iterations 3
time step continuity errors : sum local = 0.00106615, global = 7.47789e-05, cumulative = 0.0139801
smoothSolver:  Solving for omega, Initial residual = 5.0942e-05, Final residual = 2.80031e-06, No Iterations 3
smoothSolver:  Solving for k, Initial residual = 0.00472057, Final residual = 0.000450235, No Iterations 4
ExecutionTime = 0.49 s  ClockTime = 0 s

scalarTransport execute: age
smoothSolver:  Solving for age, Initial residual = 0.011109, Final residual = 0.00110857, No Iterations 10

Time = 37

smoothSolver:  Solving for Ux, Initial residual = 0.00893579, Final residual = 0.000696588, No Iterations 5
smoothSolver:  Solving for Uy, Initial residual = 0.00576254, Final residual = 0.000432099, No Iterations 5
GAMG:  Solving for p, Initial residual = 0.00734214, Final residual = 0.000404252, No Iterations 3
time step continuity errors : sum local = 0.00104601, global = 8.59073e-05, cumulative = 0.014066
smoothSolver:  Solving for omega, Initial residual = 5.56817e-05, Final residual = 2.85381e-06, No Iterations 3
smoothSolver:  Solving for k, Initial residual = 0.00444156, Final residual = 0.000421032, No Iterations 4
ExecutionTime = 0.5 s  ClockTime = 0 s

scalarTransport execute: age
smoothSolver:  Solving for age, Initial residual = 0.0112118, Final residual = 0.000967148, No Iterations 11

Time = 38

smoothSolver:  Solving for Ux, Initial residual = 0.00875974, Final residual = 0.000686761, No Iterations 5
smoothSolver:  Solving for Uy, Initial residual = 0.00575394, Final residual = 0.000431506, No Iterations 5
GAMG:  Solving for p, Initial residual = 0.00742573, Final residual = 0.000397629, No Iterations 3
time step continuity errors : sum local = 0.00102591, global = 9.34322e-05, cumulative = 0.0141594
smoothSolver:  Solving for omega, Initial residual = 5.70804e-05, Final residual = 2.91417e-06, No Iterations 3
smoothSolver:  Solving for k, Initial residual = 0.00416608, Final residual = 0.000391469, No Iterations 4
ExecutionTime = 0.51 s  ClockTime = 0 s

scalarTransport execute: age
smoothSolver:  Solving for age, Initial residual = 0.0111901, Final residual = 0.000975146, No Iterations 11

Time = 39

smoothSolver:  Solving for Ux, Initial residual = 0.00839644, Final residual = 0.000657759, No Iterations 5
smoothSolver:  Solving for Uy, Initial residual = 0.00579831, Final residual = 0.000427948, No Iterations 5
GAMG:  Solving for p, Initial residual = 0.00748402, Final residual = 0.000357161, No Iterations 3
time step continuity errors : sum local = 0.000918793, global = 8.686e-05, cumulative = 0.0142463
smoothSolver:  Solving for omega, Initial residual = 5.59532e-05, Final residual = 2.94689e-06, No Iterations 3
smoothSolver:  Solving for k, Initial residual = 0.0038988, Final residual = 0.00036165, No Iterations 4
ExecutionTime = 0.52 s  ClockTime = 0 s

scalarTransport execute: age
smoothSolver:  Solving for age, Initial residual = 0.0110623, Final residual = 0.000980546, No Iterations 11

Time = 40

smoothSolver:  Solving for Ux, Initial residual = 0.00823232, Final residual = 0.000645801, No Iterations 5
smoothSolver:  Solving for Uy, Initial residual = 0.00566973, Final residual = 0.000422085, No Iterations 5
GAMG:  Solving for p, Initial residual = 0.00753056, Final residual = 0.000344242, No Iterations 3
time step continuity errors : sum local = 0.000882502, global = 8.15461e-05, cumulative = 0.0143278
smoothSolver:  Solving for omega, Initial residual = 6.05748e-05, Final residual = 2.97944e-06, No Iterations 3
smoothSolver:  Solving for k, Initial residual = 0.00363448, Final residual = 0.000331929, No Iterations 4
ExecutionTime = 0.53 s  ClockTime = 0 s

scalarTransport execute: age
smoothSolver:  Solving for age, Initial residual = 0.010836, Final residual = 0.000978965, No Iterations 11

Time = 41

smoothSolver:  Solving for Ux, Initial residual = 0.00794275, Final residual = 0.000622118, No Iterations 5
smoothSolver:  Solving for Uy, Initial residual = 0.00555721, Final residual = 0.000412781, No Iterations 5
GAMG:  Solving for p, Initial residual = 0.00748268, Final residual = 0.000332602, No Iterations 3
time step continuity errors : sum local = 0.000850037, global = 7.90461e-05, cumulative = 0.0144069
smoothSolver:  Solving for omega, Initial residual = 6.19043e-05, Final residual = 2.99334e-06, No Iterations 3
smoothSolver:  Solving for k, Initial residual = 0.00336558, Final residual = 0.000302841, No Iterations 4
ExecutionTime = 0.55 s  ClockTime = 0 s

scalarTransport execute: age
smoothSolver:  Solving for age, Initial residual = 0.0105083, Final residual = 0.000974952, No Iterations 11

Time = 42

smoothSolver:  Solving for Ux, Initial residual = 0.00760997, Final residual = 0.00059366, No Iterations 5
smoothSolver:  Solving for Uy, Initial residual = 0.00540733, Final residual = 0.000400821, No Iterations 5
GAMG:  Solving for p, Initial residual = 0.00737747, Final residual = 0.00031867, No Iterations 3
time step continuity errors : sum local = 0.000811978, global = 7.83522e-05, cumulative = 0.0144852
smoothSolver:  Solving for omega, Initial residual = 6.66989e-05, Final residual = 6.17643e-06, No Iterations 2
smoothSolver:  Solving for k, Initial residual = 0.00309702, Final residual = 0.000274583, No Iterations 4
ExecutionTime = 0.56 s  ClockTime = 0 s

scalarTransport execute: age
smoothSolver:  Solving for age, Initial residual = 0.0100858, Final residual = 0.000966669, No Iterations 11

Time = 43

smoothSolver:  Solving for Ux, Initial residual = 0.0072514, Final residual = 0.000562875, No Iterations 5
smoothSolver:  Solving for Uy, Initial residual = 0.00520063, Final residual = 0.000385737, No Iterations 5
GAMG:  Solving for p, Initial residual = 0.00718546, Final residual = 0.000302585, No Iterations 3
time step continuity errors : sum local = 0.000768462, global = 7.71266e-05, cumulative = 0.0145624
smoothSolver:  Solving for omega, Initial residual = 9.06129e-05, Final residual = 6.50148e-06, No Iterations 2
smoothSolver:  Solving for k, Initial residual = 0.00282765, Final residual = 0.000248135, No Iterations 4
ExecutionTime = 0.57 s  ClockTime = 0 s

scalarTransport execute: age
smoothSolver:  Solving for age, Initial residual = 0.00966625, Final residual = 0.0009556, No Iterations 11

Time = 44

smoothSolver:  Solving for Ux, Initial residual = 0.00679247, Final residual = 0.000524486, No Iterations 5
smoothSolver:  Solving for Uy, Initial residual = 0.00502774, Final residual = 0.000367908, No Iterations 5
GAMG:  Solving for p, Initial residual = 0.00694016, Final residual = 0.000287055, No Iterations 3
time step continuity errors : sum local = 0.000726413, global = 7.47894e-05, cumulative = 0.0146372
smoothSolver:  Solving for omega, Initial residual = 7.69689e-05, Final residual = 6.33133e-06, No Iterations 2
smoothSolver:  Solving for k, Initial residual = 0.00257071, Final residual = 0.000223779, No Iterations 4
ExecutionTime = 0.59 s  ClockTime = 0 s

scalarTransport execute: age
smoothSolver:  Solving for age, Initial residual = 0.00914025, Final residual = 0.000811879, No Iterations 12

Time = 45

smoothSolver:  Solving for Ux, Initial residual = 0.00646425, Final residual = 0.000498892, No Iterations 5
smoothSolver:  Solving for Uy, Initial residual = 0.0046838, Final residual = 0.000348027, No Iterations 5
GAMG:  Solving for p, Initial residual = 0.00664021, Final residual = 0.000272972, No Iterations 3
time step continuity errors : sum local = 0.000688187, global = 7.15688e-05, cumulative = 0.0147087
smoothSolver:  Solving for omega, Initial residual = 6.74932e-05, Final residual = 6.00783e-06, No Iterations 2
smoothSolver:  Solving for k, Initial residual = 0.00233316, Final residual = 0.000201516, No Iterations 4
ExecutionTime = 0.6 s  ClockTime = 0 s

scalarTransport execute: age
smoothSolver:  Solving for age, Initial residual = 0.00863624, Final residual = 0.000782937, No Iterations 12

Time = 46

smoothSolver:  Solving for Ux, Initial residual = 0.00547672, Final residual = 0.000416794, No Iterations 5
smoothSolver:  Solving for Uy, Initial residual = 0.00501816, Final residual = 0.000325471, No Iterations 5
GAMG:  Solving for p, Initial residual = 0.00626533, Final residual = 0.000261438, No Iterations 3
time step continuity errors : sum local = 0.00065665, global = 6.78024e-05, cumulative = 0.0147765
smoothSolver:  Solving for omega, Initial residual = 5.6479e-05, Final residual = 5.63532e-06, No Iterations 2
smoothSolver:  Solving for k, Initial residual = 0.00211783, Final residual = 0.000181311, No Iterations 4
ExecutionTime = 0.61 s  ClockTime = 0 s

scalarTransport execute: age
smoothSolver:  Solving for age, Initial residual = 0.0080602, Final residual = 0.00074827, No Iterations 12

Time = 47

smoothSolver:  Solving for Ux, Initial residual = 0.00563608, Final residual = 0.000429297, No Iterations 5
smoothSolver:  Solving for Uy, Initial residual = 0.00412817, Final residual = 0.000301949, No Iterations 5
GAMG:  Solving for p, Initial residual = 0.00587897, Final residual = 0.00025062, No Iterations 3
time step continuity errors : sum local = 0.00062719, global = 6.33373e-05, cumulative = 0.0148399
smoothSolver:  Solving for omega, Initial residual = 5.07606e-05, Final residual = 2.59621e-06, No Iterations 3
smoothSolver:  Solving for k, Initial residual = 0.00192372, Final residual = 0.000163456, No Iterations 4
ExecutionTime = 0.62 s  ClockTime = 0 s

scalarTransport execute: age
smoothSolver:  Solving for age, Initial residual = 0.00749798, Final residual = 0.000713239, No Iterations 12

Time = 48

smoothSolver:  Solving for Ux, Initial residual = 0.00531816, Final residual = 0.000405129, No Iterations 5
smoothSolver:  Solving for Uy, Initial residual = 0.00374405, Final residual = 0.00027727, No Iterations 5
GAMG:  Solving for p, Initial residual = 0.00546126, Final residual = 0.000240504, No Iterations 3
time step continuity errors : sum local = 0.000599738, global = 5.80609e-05, cumulative = 0.0148979
smoothSolver:  Solving for omega, Initial residual = 4.21614e-05, Final residual = 2.21601e-06, No Iterations 3
smoothSolver:  Solving for k, Initial residual = 0.00174717, Final residual = 0.00014755, No Iterations 4
ExecutionTime = 0.64 s  ClockTime = 0 s

scalarTransport execute: age
smoothSolver:  Solving for age, Initial residual = 0.00698246, Final residual = 0.000679804, No Iterations 12

Time = 49

smoothSolver:  Solving for Ux, Initial residual = 0.00498223, Final residual = 0.000379943, No Iterations 5
smoothSolver:  Solving for Uy, Initial residual = 0.00342291, Final residual = 0.000254822, No Iterations 5
GAMG:  Solving for p, Initial residual = 0.00506819, Final residual = 0.000231547, No Iterations 3
time step continuity errors : sum local = 0.000575438, global = 5.19037e-05, cumulative = 0.0149498
smoothSolver:  Solving for omega, Initial residual = 3.54343e-05, Final residual = 1.91746e-06, No Iterations 3
smoothSolver:  Solving for k, Initial residual = 0.00159403, Final residual = 0.000133411, No Iterations 4
ExecutionTime = 0.65 s  ClockTime = 0 s

scalarTransport execute: age
smoothSolver:  Solving for age, Initial residual = 0.00648489, Final residual = 0.000561804, No Iterations 13

Time = 50

smoothSolver:  Solving for Ux, Initial residual = 0.00464455, Final residual = 0.000355293, No Iterations 5
smoothSolver:  Solving for Uy, Initial residual = 0.00313934, Final residual = 0.000234902, No Iterations 5
GAMG:  Solving for p, Initial residual = 0.00473055, Final residual = 0.000222267, No Iterations 3
time step continuity errors : sum local = 0.000550638, global = 4.55784e-05, cumulative = 0.0149954
smoothSolver:  Solving for omega, Initial residual = 2.96598e-05, Final residual = 1.67119e-06, No Iterations 3
smoothSolver:  Solving for k, Initial residual = 0.0014659, Final residual = 0.000121041, No Iterations 4
ExecutionTime = 0.66 s  ClockTime = 0 s

scalarTransport execute: age
smoothSolver:  Solving for age, Initial residual = 0.00604859, Final residual = 0.000536859, No Iterations 13

Time = 51

smoothSolver:  Solving for Ux, Initial residual = 0.00433947, Final residual = 0.000331598, No Iterations 5
smoothSolver:  Solving for Uy, Initial residual = 0.00288342, Final residual = 0.000215374, No Iterations 5
GAMG:  Solving for p, Initial residual = 0.00439511, Final residual = 0.000213388, No Iterations 3
time step continuity errors : sum local = 0.000527116, global = 3.90455e-05, cumulative = 0.0150345
smoothSolver:  Solving for omega, Initial residual = 2.69101e-05, Final residual = 1.46843e-06, No Iterations 3
smoothSolver:  Solving for k, Initial residual = 0.00136517, Final residual = 0.00011035, No Iterations 4
ExecutionTime = 0.68 s  ClockTime = 0 s

scalarTransport execute: age
smoothSolver:  Solving for age, Initial residual = 0.00570737, Final residual = 0.000517107, No Iterations 13

Time = 52

smoothSolver:  Solving for Ux, Initial residual = 0.00403872, Final residual = 0.000308904, No Iterations 5
smoothSolver:  Solving for Uy, Initial residual = 0.00265158, Final residual = 0.000196415, No Iterations 5
GAMG:  Solving for p, Initial residual = 0.00410455, Final residual = 0.000208124, No Iterations 3
time step continuity errors : sum local = 0.00051274, global = 3.2082e-05, cumulative = 0.0150665
smoothSolver:  Solving for omega, Initial residual = 2.26185e-05, Final residual = 1.31601e-06, No Iterations 3
smoothSolver:  Solving for k, Initial residual = 0.00128486, Final residual = 0.000101104, No Iterations 4
ExecutionTime = 0.69 s  ClockTime = 0 s

scalarTransport execute: age
smoothSolver:  Solving for age, Initial residual = 0.00547928, Final residual = 0.000501898, No Iterations 13

Time = 53

smoothSolver:  Solving for Ux, Initial residual = 0.0037765, Final residual = 0.000287984, No Iterations 5
smoothSolver:  Solving for Uy, Initial residual = 0.00244218, Final residual = 0.000178423, No Iterations 5
GAMG:  Solving for p, Initial residual = 0.0038697, Final residual = 0.000204912, No Iterations 3
time step continuity errors : sum local = 0.00050361, global = 2.38376e-05, cumulative = 0.0150904
smoothSolver:  Solving for omega, Initial residual = 2.16716e-05, Final residual = 1.18127e-06, No Iterations 3
smoothSolver:  Solving for k, Initial residual = 0.00121691, Final residual = 9.30592e-05, No Iterations 4
ExecutionTime = 0.7 s  ClockTime = 0 s

scalarTransport execute: age
smoothSolver:  Solving for age, Initial residual = 0.00532859, Final residual = 0.000490686, No Iterations 13

Time = 54

smoothSolver:  Solving for Ux, Initial residual = 0.00354867, Final residual = 0.000268627, No Iterations 5
smoothSolver:  Solving for Uy, Initial residual = 0.00225517, Final residual = 0.000161224, No Iterations 5
GAMG:  Solving for p, Initial residual = 0.00366513, Final residual = 0.000202523, No Iterations 3
time step continuity errors : sum local = 0.000496644, global = 1.60851e-05, cumulative = 0.0151065
smoothSolver:  Solving for omega, Initial residual = 2.26718e-05, Final residual = 2.24085e-06, No Iterations 2
smoothSolver:  Solving for k, Initial residual = 0.00115171, Final residual = 8.60644e-05, No Iterations 4
ExecutionTime = 0.71 s  ClockTime = 0 s

scalarTransport execute: age
smoothSolver:  Solving for age, Initial residual = 0.00520346, Final residual = 0.000481389, No Iterations 13

Time = 55

smoothSolver:  Solving for Ux, Initial residual = 0.00332832, Final residual = 0.000250721, No Iterations 5
smoothSolver:  Solving for Uy, Initial residual = 0.00208624, Final residual = 0.000145169, No Iterations 5
GAMG:  Solving for p, Initial residual = 0.0034828, Final residual = 0.000192832, No Iterations 3
time step continuity errors : sum local = 0.000472007, global = 6.8256e-06, cumulative = 0.0151133
smoothSolver:  Solving for omega, Initial residual = 2.37841e-05, Final residual = 2.22529e-06, No Iterations 2
smoothSolver:  Solving for k, Initial residual = 0.00108742, Final residual = 8.02811e-05, No Iterations 4
ExecutionTime = 0.73 s  ClockTime = 0 s

scalarTransport execute: age
smoothSolver:  Solving for age, Initial residual = 0.00508627, Final residual = 0.000472899, No Iterations 13

Time = 56

smoothSolver:  Solving for Ux, Initial residual = 0.0031286, Final residual = 0.000234859, No Iterations 5
smoothSolver:  Solving for Uy, Initial residual = 0.00193315, Final residual = 0.000130166, No Iterations 5
GAMG:  Solving for p, Initial residual = 0.00330766, Final residual = 0.00018052, No Iterations 3
time step continuity errors : sum local = 0.000441142, global = -4.92947e-06, cumulative = 0.0151084
smoothSolver:  Solving for omega, Initial residual = 2.33103e-05, Final residual = 2.15406e-06, No Iterations 2
smoothSolver:  Solving for k, Initial residual = 0.00102876, Final residual = 7.60097e-05, No Iterations 4
ExecutionTime = 0.74 s  ClockTime = 0 s

scalarTransport execute: age
smoothSolver:  Solving for age, Initial residual = 0.00493875, Final residual = 0.000460625, No Iterations 13

Time = 57

smoothSolver:  Solving for Ux, Initial residual = 0.00293474, Final residual = 0.000212612, No Iterations 5
smoothSolver:  Solving for Uy, Initial residual = 0.00196859, Final residual = 0.000192261, No Iterations 4
GAMG:  Solving for p, Initial residual = 0.00310845, Final residual = 0.000171804, No Iterations 3
time step continuity errors : sum local = 0.000419262, global = -1.84062e-05, cumulative = 0.01509
smoothSolver:  Solving for omega, Initial residual = 2.22046e-05, Final residual = 2.10395e-06, No Iterations 2
smoothSolver:  Solving for k, Initial residual = 0.000975759, Final residual = 7.22969e-05, No Iterations 4
ExecutionTime = 0.75 s  ClockTime = 0 s

scalarTransport execute: age
smoothSolver:  Solving for age, Initial residual = 0.00475636, Final residual = 0.000442858, No Iterations 13

Time = 58

smoothSolver:  Solving for Ux, Initial residual = 0.00275115, Final residual = 0.000204294, No Iterations 5
smoothSolver:  Solving for Uy, Initial residual = 0.00169119, Final residual = 0.000107874, No Iterations 5
GAMG:  Solving for p, Initial residual = 0.00296697, Final residual = 0.000149409, No Iterations 3
time step continuity errors : sum local = 0.000364196, global = -3.11332e-05, cumulative = 0.0150588
smoothSolver:  Solving for omega, Initial residual = 2.04932e-05, Final residual = 1.0292e-06, No Iterations 3
smoothSolver:  Solving for k, Initial residual = 0.000926042, Final residual = 6.87147e-05, No Iterations 4
ExecutionTime = 0.76 s  ClockTime = 0 s

scalarTransport execute: age
smoothSolver:  Solving for age, Initial residual = 0.00452976, Final residual = 0.000414006, No Iterations 13

Time = 59

smoothSolver:  Solving for Ux, Initial residual = 0.00315316, Final residual = 0.00023644, No Iterations 4
smoothSolver:  Solving for Uy, Initial residual = 0.00307165, Final residual = 0.000267174, No Iterations 3
GAMG:  Solving for p, Initial residual = 0.00264336, Final residual = 0.000123476, No Iterations 3
time step continuity errors : sum local = 0.000300782, global = -3.54496e-05, cumulative = 0.0150234
smoothSolver:  Solving for omega, Initial residual = 2.41616e-05, Final residual = 1.87379e-06, No Iterations 2
smoothSolver:  Solving for k, Initial residual = 0.000868296, Final residual = 6.52266e-05, No Iterations 4
ExecutionTime = 0.78 s  ClockTime = 0 s

scalarTransport execute: age
smoothSolver:  Solving for age, Initial residual = 0.00424523, Final residual = 0.000375136, No Iterations 13

Time = 60

smoothSolver:  Solving for Ux, Initial residual = 0.0025613, Final residual = 0.000164829, No Iterations 5
smoothSolver:  Solving for Uy, Initial residual = 0.0015446, Final residual = 9.49745e-05, No Iterations 5
GAMG:  Solving for p, Initial residual = 0.0026353, Final residual = 0.000110129, No Iterations 3
time step continuity errors : sum local = 0.000268214, global = -3.47324e-05, cumulative = 0.0149886
smoothSolver:  Solving for omega, Initial residual = 1.95289e-05, Final residual = 1.89416e-06, No Iterations 2
smoothSolver:  Solving for k, Initial residual = 0.000814162, Final residual = 6.15454e-05, No Iterations 4
ExecutionTime = 0.79 s  ClockTime = 0 s

scalarTransport execute: age
smoothSolver:  Solving for age, Initial residual = 0.00400306, Final residual = 0.00039097, No Iterations 12

Time = 61

smoothSolver:  Solving for Ux, Initial residual = 0.00226789, Final residual = 0.000166501, No Iterations 5
smoothSolver:  Solving for Uy, Initial residual = 0.00139666, Final residual = 8.75397e-05, No Iterations 5
GAMG:  Solving for p, Initial residual = 0.00244453, Final residual = 0.000102629, No Iterations 3
time step continuity errors : sum local = 0.000249988, global = -3.28634e-05, cumulative = 0.0149558
smoothSolver:  Solving for omega, Initial residual = 2.1698e-05, Final residual = 1.85688e-06, No Iterations 2
smoothSolver:  Solving for k, Initial residual = 0.000759132, Final residual = 5.77857e-05, No Iterations 4
ExecutionTime = 0.8 s  ClockTime = 0 s

scalarTransport execute: age
smoothSolver:  Solving for age, Initial residual = 0.00377119, Final residual = 0.000355819, No Iterations 12

Time = 62

smoothSolver:  Solving for Ux, Initial residual = 0.00211584, Final residual = 0.0001542, No Iterations 5
smoothSolver:  Solving for Uy, Initial residual = 0.00130569, Final residual = 8.2159e-05, No Iterations 5
GAMG:  Solving for p, Initial residual = 0.0022965, Final residual = 9.74385e-05, No Iterations 3
time step continuity errors : sum local = 0.000237401, global = -3.08609e-05, cumulative = 0.0149249
smoothSolver:  Solving for omega, Initial residual = 2.20139e-05, Final residual = 1.84158e-06, No Iterations 2
smoothSolver:  Solving for k, Initial residual = 0.000703863, Final residual = 5.39628e-05, No Iterations 4
ExecutionTime = 0.81 s  ClockTime = 1 s

scalarTransport execute: age
smoothSolver:  Solving for age, Initial residual = 0.0035939, Final residual = 0.000330086, No Iterations 12

Time = 63

smoothSolver:  Solving for Ux, Initial residual = 0.00195148, Final residual = 0.00014203, No Iterations 5
smoothSolver:  Solving for Uy, Initial residual = 0.00123124, Final residual = 7.78406e-05, No Iterations 5
GAMG:  Solving for p, Initial residual = 0.00213815, Final residual = 9.15226e-05, No Iterations 3
time step continuity errors : sum local = 0.000223026, global = -2.86772e-05, cumulative = 0.0148962
smoothSolver:  Solving for omega, Initial residual = 1.76848e-05, Final residual = 1.67191e-06, No Iterations 2
smoothSolver:  Solving for k, Initial residual = 0.000648906, Final residual = 5.01016e-05, No Iterations 4
ExecutionTime = 0.83 s  ClockTime = 1 s

scalarTransport execute: age
smoothSolver:  Solving for age, Initial residual = 0.0034293, Final residual = 0.00031288, No Iterations 12

Time = 64

smoothSolver:  Solving for Ux, Initial residual = 0.00178701, Final residual = 0.000129908, No Iterations 5
smoothSolver:  Solving for Uy, Initial residual = 0.00114546, Final residual = 7.40965e-05, No Iterations 5
GAMG:  Solving for p, Initial residual = 0.00198345, Final residual = 8.2933e-05, No Iterations 3
time step continuity errors : sum local = 0.000202118, global = -2.59325e-05, cumulative = 0.0148703
smoothSolver:  Solving for omega, Initial residual = 1.95492e-05, Final residual = 1.6194e-06, No Iterations 2
smoothSolver:  Solving for k, Initial residual = 0.000594031, Final residual = 4.62542e-05, No Iterations 4
ExecutionTime = 0.84 s  ClockTime = 1 s

scalarTransport execute: age
smoothSolver:  Solving for age, Initial residual = 0.00328448, Final residual = 0.00030589, No Iterations 12

Time = 65

smoothSolver:  Solving for Ux, Initial residual = 0.00163264, Final residual = 0.000117688, No Iterations 5
smoothSolver:  Solving for Uy, Initial residual = 0.00107133, Final residual = 7.048e-05, No Iterations 5
GAMG:  Solving for p, Initial residual = 0.00183669, Final residual = 7.49293e-05, No Iterations 3
time step continuity errors : sum local = 0.000182623, global = -2.30196e-05, cumulative = 0.0148473
smoothSolver:  Solving for omega, Initial residual = 1.45864e-05, Final residual = 1.44776e-06, No Iterations 2
smoothSolver:  Solving for k, Initial residual = 0.000540653, Final residual = 4.24803e-05, No Iterations 4
ExecutionTime = 0.85 s  ClockTime = 1 s

scalarTransport execute: age
smoothSolver:  Solving for age, Initial residual = 0.00317925, Final residual = 0.00030502, No Iterations 12

Time = 66

smoothSolver:  Solving for Ux, Initial residual = 0.00147904, Final residual = 0.000106694, No Iterations 5
smoothSolver:  Solving for Uy, Initial residual = 0.000998131, Final residual = 6.72652e-05, No Iterations 5
GAMG:  Solving for p, Initial residual = 0.001695, Final residual = 6.82669e-05, No Iterations 3
time step continuity errors : sum local = 0.000166378, global = -2.03223e-05, cumulative = 0.014827
smoothSolver:  Solving for omega, Initial residual = 1.25396e-05, Final residual = 6.84395e-07, No Iterations 3
smoothSolver:  Solving for k, Initial residual = 0.000489842, Final residual = 3.88324e-05, No Iterations 4
ExecutionTime = 0.87 s  ClockTime = 1 s

scalarTransport execute: age
smoothSolver:  Solving for age, Initial residual = 0.00306806, Final residual = 0.000303693, No Iterations 12

Time = 67

smoothSolver:  Solving for Ux, Initial residual = 0.00132989, Final residual = 9.63974e-05, No Iterations 5
smoothSolver:  Solving for Uy, Initial residual = 0.000924831, Final residual = 6.42846e-05, No Iterations 5
GAMG:  Solving for p, Initial residual = 0.00155728, Final residual = 6.33942e-05, No Iterations 3
time step continuity errors : sum local = 0.00015448, global = -1.80227e-05, cumulative = 0.0148089
smoothSolver:  Solving for omega, Initial residual = 1.01397e-05, Final residual = 5.79276e-07, No Iterations 3
smoothSolver:  Solving for k, Initial residual = 0.000442931, Final residual = 3.53463e-05, No Iterations 4
ExecutionTime = 0.88 s  ClockTime = 1 s

scalarTransport execute: age
smoothSolver:  Solving for age, Initial residual = 0.00297158, Final residual = 0.000258301, No Iterations 13

Time = 68

smoothSolver:  Solving for Ux, Initial residual = 0.00119468, Final residual = 8.68399e-05, No Iterations 5
smoothSolver:  Solving for Uy, Initial residual = 0.000862286, Final residual = 6.13706e-05, No Iterations 5
GAMG:  Solving for p, Initial residual = 0.00145028, Final residual = 5.76669e-05, No Iterations 3
time step continuity errors : sum local = 0.000140486, global = -1.56669e-05, cumulative = 0.0147933
smoothSolver:  Solving for omega, Initial residual = 8.95764e-06, Final residual = 5.10144e-07, No Iterations 3
smoothSolver:  Solving for k, Initial residual = 0.000401725, Final residual = 3.2054e-05, No Iterations 4
ExecutionTime = 0.89 s  ClockTime = 1 s

scalarTransport execute: age
smoothSolver:  Solving for age, Initial residual = 0.00288078, Final residual = 0.000287292, No Iterations 12

Time = 69

smoothSolver:  Solving for Ux, Initial residual = 0.00107659, Final residual = 7.8045e-05, No Iterations 5
smoothSolver:  Solving for Uy, Initial residual = 0.000820351, Final residual = 5.80078e-05, No Iterations 5
GAMG:  Solving for p, Initial residual = 0.00135033, Final residual = 5.41745e-05, No Iterations 3
time step continuity errors : sum local = 0.000131933, global = -1.40369e-05, cumulative = 0.0147792
smoothSolver:  Solving for omega, Initial residual = 1.62008e-05, Final residual = 9.19225e-07, No Iterations 2
smoothSolver:  Solving for k, Initial residual = 0.000366471, Final residual = 2.89923e-05, No Iterations 4
ExecutionTime = 0.9 s  ClockTime = 1 s

scalarTransport execute: age
smoothSolver:  Solving for age, Initial residual = 0.00277382, Final residual = 0.000239801, No Iterations 13

Time = 70

smoothSolver:  Solving for Ux, Initial residual = 0.000966101, Final residual = 7.05787e-05, No Iterations 5
smoothSolver:  Solving for Uy, Initial residual = 0.00074748, Final residual = 5.44627e-05, No Iterations 5
GAMG:  Solving for p, Initial residual = 0.00125707, Final residual = 4.95785e-05, No Iterations 3
time step continuity errors : sum local = 0.000120687, global = -1.23859e-05, cumulative = 0.0147669
smoothSolver:  Solving for omega, Initial residual = 1.42884e-05, Final residual = 8.75253e-07, No Iterations 2
smoothSolver:  Solving for k, Initial residual = 0.000334403, Final residual = 2.61656e-05, No Iterations 4
ExecutionTime = 0.92 s  ClockTime = 1 s

scalarTransport execute: age
smoothSolver:  Solving for age, Initial residual = 0.00266798, Final residual = 0.000266414, No Iterations 12

Time = 71

smoothSolver:  Solving for Ux, Initial residual = 0.000870323, Final residual = 6.34134e-05, No Iterations 5
smoothSolver:  Solving for Uy, Initial residual = 0.000689334, Final residual = 5.05856e-05, No Iterations 5
GAMG:  Solving for p, Initial residual = 0.00117393, Final residual = 4.54575e-05, No Iterations 3
time step continuity errors : sum local = 0.000110601, global = -1.06328e-05, cumulative = 0.0147562
smoothSolver:  Solving for omega, Initial residual = 1.51493e-05, Final residual = 8.50087e-07, No Iterations 2
smoothSolver:  Solving for k, Initial residual = 0.000304464, Final residual = 2.35651e-05, No Iterations 4
ExecutionTime = 0.93 s  ClockTime = 1 s

scalarTransport execute: age
smoothSolver:  Solving for age, Initial residual = 0.0025567, Final residual = 0.000220926, No Iterations 13

Time = 72

smoothSolver:  Solving for Ux, Initial residual = 0.000790548, Final residual = 5.68389e-05, No Iterations 5
smoothSolver:  Solving for Uy, Initial residual = 0.000635909, Final residual = 4.67025e-05, No Iterations 5
GAMG:  Solving for p, Initial residual = 0.00109443, Final residual = 4.26015e-05, No Iterations 3
time step continuity errors : sum local = 0.000103597, global = -9.06377e-06, cumulative = 0.0147472
smoothSolver:  Solving for omega, Initial residual = 1.41367e-05, Final residual = 7.96293e-07, No Iterations 2
smoothSolver:  Solving for k, Initial residual = 0.000275253, Final residual = 2.11885e-05, No Iterations 4
ExecutionTime = 0.94 s  ClockTime = 1 s

scalarTransport execute: age
smoothSolver:  Solving for age, Initial residual = 0.00243946, Final residual = 0.000211761, No Iterations 13

Time = 73

smoothSolver:  Solving for Ux, Initial residual = 0.000714602, Final residual = 5.11753e-05, No Iterations 5
smoothSolver:  Solving for Uy, Initial residual = 0.000576677, Final residual = 4.27819e-05, No Iterations 5
GAMG:  Solving for p, Initial residual = 0.00101382, Final residual = 4.03476e-05, No Iterations 3
time step continuity errors : sum local = 9.8061e-05, global = -7.64896e-06, cumulative = 0.0147395
smoothSolver:  Solving for omega, Initial residual = 1.56684e-05, Final residual = 7.771e-07, No Iterations 2
smoothSolver:  Solving for k, Initial residual = 0.000248049, Final residual = 1.90292e-05, No Iterations 4
ExecutionTime = 0.96 s  ClockTime = 1 s

scalarTransport execute: age
smoothSolver:  Solving for age, Initial residual = 0.00232826, Final residual = 0.000202596, No Iterations 13

Time = 74

smoothSolver:  Solving for Ux, Initial residual = 0.000652482, Final residual = 4.57234e-05, No Iterations 5
smoothSolver:  Solving for Uy, Initial residual = 0.000549261, Final residual = 3.8967e-05, No Iterations 5
GAMG:  Solving for p, Initial residual = 0.000940212, Final residual = 3.80219e-05, No Iterations 3
time step continuity errors : sum local = 9.23562e-05, global = -6.31645e-06, cumulative = 0.0147332
smoothSolver:  Solving for omega, Initial residual = 1.40117e-05, Final residual = 7.30781e-07, No Iterations 2
smoothSolver:  Solving for k, Initial residual = 0.000223239, Final residual = 1.70672e-05, No Iterations 4
ExecutionTime = 0.97 s  ClockTime = 1 s

scalarTransport execute: age
smoothSolver:  Solving for age, Initial residual = 0.00226722, Final residual = 0.000195953, No Iterations 13

Time = 75

smoothSolver:  Solving for Ux, Initial residual = 0.00059274, Final residual = 4.13389e-05, No Iterations 5
smoothSolver:  Solving for Uy, Initial residual = 0.00048021, Final residual = 3.54029e-05, No Iterations 5
GAMG:  Solving for p, Initial residual = 0.000870522, Final residual = 3.53854e-05, No Iterations 3
time step continuity errors : sum local = 8.59036e-05, global = -5.13876e-06, cumulative = 0.0147281
smoothSolver:  Solving for omega, Initial residual = 1.00962e-05, Final residual = 6.55414e-07, No Iterations 2
smoothSolver:  Solving for k, Initial residual = 0.000199564, Final residual = 1.52904e-05, No Iterations 4
ExecutionTime = 0.98 s  ClockTime = 1 s

scalarTransport execute: age
smoothSolver:  Solving for age, Initial residual = 0.00224066, Final residual = 0.000221655, No Iterations 12

Time = 76

smoothSolver:  Solving for Ux, Initial residual = 0.000552496, Final residual = 3.70473e-05, No Iterations 5
smoothSolver:  Solving for Uy, Initial residual = 0.000440378, Final residual = 3.19315e-05, No Iterations 5
GAMG:  Solving for p, Initial residual = 0.000807555, Final residual = 3.38293e-05, No Iterations 3
time step continuity errors : sum local = 8.20806e-05, global = -4.91353e-06, cumulative = 0.0147231
smoothSolver:  Solving for omega, Initial residual = 9.4813e-06, Final residual = 6.16258e-07, No Iterations 2
smoothSolver:  Solving for k, Initial residual = 0.000177491, Final residual = 1.36859e-05, No Iterations 4
ExecutionTime = 0.99 s  ClockTime = 1 s

scalarTransport execute: age
smoothSolver:  Solving for age, Initial residual = 0.00223948, Final residual = 0.000214328, No Iterations 12

Time = 77

smoothSolver:  Solving for Ux, Initial residual = 0.000500728, Final residual = 3.35199e-05, No Iterations 5
smoothSolver:  Solving for Uy, Initial residual = 0.000413497, Final residual = 2.88024e-05, No Iterations 5
GAMG:  Solving for p, Initial residual = 0.000751243, Final residual = 3.04965e-05, No Iterations 3
time step continuity errors : sum local = 7.39518e-05, global = -4.20631e-06, cumulative = 0.0147189
smoothSolver:  Solving for omega, Initial residual = 7.16449e-06, Final residual = 5.54097e-07, No Iterations 2
smoothSolver:  Solving for k, Initial residual = 0.000158328, Final residual = 1.22407e-05, No Iterations 4
ExecutionTime = 1.01 s  ClockTime = 1 s

scalarTransport execute: age
smoothSolver:  Solving for age, Initial residual = 0.00224647, Final residual = 0.000205001, No Iterations 12

Time = 78

smoothSolver:  Solving for Ux, Initial residual = 0.00045578, Final residual = 3.02109e-05, No Iterations 5
smoothSolver:  Solving for Uy, Initial residual = 0.000369091, Final residual = 2.60189e-05, No Iterations 5
GAMG:  Solving for p, Initial residual = 0.000676658, Final residual = 2.74503e-05, No Iterations 3
time step continuity errors : sum local = 6.65332e-05, global = -3.39916e-06, cumulative = 0.0147155
smoothSolver:  Solving for omega, Initial residual = 1.02535e-05, Final residual = 5.2114e-07, No Iterations 2
smoothSolver:  Solving for k, Initial residual = 0.000141618, Final residual = 1.09461e-05, No Iterations 4
ExecutionTime = 1.02 s  ClockTime = 1 s

scalarTransport execute: age
smoothSolver:  Solving for age, Initial residual = 0.00223201, Final residual = 0.000194262, No Iterations 12

Time = 79

smoothSolver:  Solving for Ux, Initial residual = 0.000421513, Final residual = 2.74335e-05, No Iterations 5
smoothSolver:  Solving for Uy, Initial residual = 0.000332032, Final residual = 2.33842e-05, No Iterations 5
GAMG:  Solving for p, Initial residual = 0.000623218, Final residual = 6.19573e-05, No Iterations 2
time step continuity errors : sum local = 0.000150103, global = -2.94493e-06, cumulative = 0.0147126
smoothSolver:  Solving for omega, Initial residual = 1.29575e-05, Final residual = 1.27835e-06, No Iterations 1
smoothSolver:  Solving for k, Initial residual = 0.00012603, Final residual = 9.80304e-06, No Iterations 4
ExecutionTime = 1.03 s  ClockTime = 1 s

scalarTransport execute: age
smoothSolver:  Solving for age, Initial residual = 0.00218087, Final residual = 0.000213463, No Iterations 11

Time = 80

smoothSolver:  Solving for Ux, Initial residual = 0.000386022, Final residual = 2.52785e-05, No Iterations 5
smoothSolver:  Solving for Uy, Initial residual = 0.000299032, Final residual = 2.10546e-05, No Iterations 5
GAMG:  Solving for p, Initial residual = 0.000608771, Final residual = 2.84083e-05, No Iterations 3
time step continuity errors : sum local = 6.87939e-05, global = -2.37117e-06, cumulative = 0.0147102
smoothSolver:  Solving for omega, Initial residual = 1.05827e-05, Final residual = 5.01289e-07, No Iterations 2
smoothSolver:  Solving for k, Initial residual = 0.000112768, Final residual = 8.7802e-06, No Iterations 4
ExecutionTime = 1.04 s  ClockTime = 1 s

scalarTransport execute: age
smoothSolver:  Solving for age, Initial residual = 0.00219054, Final residual = 0.000215285, No Iterations 11

Time = 81

smoothSolver:  Solving for Ux, Initial residual = 0.000352737, Final residual = 2.26746e-05, No Iterations 5
smoothSolver:  Solving for Uy, Initial residual = 0.00027106, Final residual = 1.89584e-05, No Iterations 5
GAMG:  Solving for p, Initial residual = 0.000501955, Final residual = 4.80019e-05, No Iterations 2
time step continuity errors : sum local = 0.000116197, global = -2.22071e-06, cumulative = 0.014708
smoothSolver:  Solving for omega, Initial residual = 8.26746e-06, Final residual = 4.51588e-07, No Iterations 2
smoothSolver:  Solving for k, Initial residual = 9.98035e-05, Final residual = 7.86265e-06, No Iterations 4
ExecutionTime = 1.06 s  ClockTime = 1 s

scalarTransport execute: age
smoothSolver:  Solving for age, Initial residual = 0.00221993, Final residual = 0.000193509, No Iterations 12

Time = 82

smoothSolver:  Solving for Ux, Initial residual = 0.000321104, Final residual = 2.09992e-05, No Iterations 5
smoothSolver:  Solving for Uy, Initial residual = 0.000243055, Final residual = 1.72439e-05, No Iterations 5
GAMG:  Solving for p, Initial residual = 0.00049599, Final residual = 2.19731e-05, No Iterations 3
time step continuity errors : sum local = 5.31715e-05, global = -1.68625e-06, cumulative = 0.0147063
smoothSolver:  Solving for omega, Initial residual = 7.66307e-06, Final residual = 3.88955e-07, No Iterations 2
smoothSolver:  Solving for k, Initial residual = 8.8976e-05, Final residual = 7.05064e-06, No Iterations 4
ExecutionTime = 1.07 s  ClockTime = 1 s

scalarTransport execute: age
smoothSolver:  Solving for age, Initial residual = 0.00221341, Final residual = 0.000197405, No Iterations 12

Time = 83

smoothSolver:  Solving for Ux, Initial residual = 0.000293626, Final residual = 1.90579e-05, No Iterations 5
smoothSolver:  Solving for Uy, Initial residual = 0.000226558, Final residual = 1.5748e-05, No Iterations 5
GAMG:  Solving for p, Initial residual = 0.000424002, Final residual = 3.86818e-05, No Iterations 2
time step continuity errors : sum local = 9.35757e-05, global = -1.60883e-06, cumulative = 0.0147047
smoothSolver:  Solving for omega, Initial residual = 5.89935e-06, Final residual = 3.59484e-07, No Iterations 2
smoothSolver:  Solving for k, Initial residual = 7.89504e-05, Final residual = 6.32848e-06, No Iterations 4
ExecutionTime = 1.08 s  ClockTime = 1 s

scalarTransport execute: age
smoothSolver:  Solving for age, Initial residual = 0.00220673, Final residual = 0.00019834, No Iterations 12

Time = 84

smoothSolver:  Solving for Ux, Initial residual = 0.00029895, Final residual = 2.88784e-05, No Iterations 4
smoothSolver:  Solving for Uy, Initial residual = 0.000217967, Final residual = 1.43986e-05, No Iterations 5
GAMG:  Solving for p, Initial residual = 0.000417273, Final residual = 4.1236e-05, No Iterations 2
time step continuity errors : sum local = 9.9728e-05, global = -1.30111e-06, cumulative = 0.0147034
smoothSolver:  Solving for omega, Initial residual = 6.48711e-06, Final residual = 3.38211e-07, No Iterations 2
smoothSolver:  Solving for k, Initial residual = 7.01843e-05, Final residual = 5.69396e-06, No Iterations 4
ExecutionTime = 1.09 s  ClockTime = 1 s

scalarTransport execute: age
smoothSolver:  Solving for age, Initial residual = 0.00219689, Final residual = 0.00019695, No Iterations 12

Time = 85

smoothSolver:  Solving for Ux, Initial residual = 0.000257079, Final residual = 1.65338e-05, No Iterations 5
smoothSolver:  Solving for Uy, Initial residual = 0.000189052, Final residual = 1.30207e-05, No Iterations 5
GAMG:  Solving for p, Initial residual = 0.000385674, Final residual = 1.76827e-05, No Iterations 3
time step continuity errors : sum local = 4.27541e-05, global = -8.59394e-07, cumulative = 0.0147025
smoothSolver:  Solving for omega, Initial residual = 7.53963e-06, Final residual = 3.45528e-07, No Iterations 2
smoothSolver:  Solving for k, Initial residual = 6.27736e-05, Final residual = 5.13087e-06, No Iterations 4
ExecutionTime = 1.11 s  ClockTime = 1 s

scalarTransport execute: age
smoothSolver:  Solving for age, Initial residual = 0.00214807, Final residual = 0.000195303, No Iterations 12

Time = 86

smoothSolver:  Solving for Ux, Initial residual = 0.000233327, Final residual = 1.51463e-05, No Iterations 5
smoothSolver:  Solving for Uy, Initial residual = 0.000173219, Final residual = 1.20626e-05, No Iterations 5
GAMG:  Solving for p, Initial residual = 0.000324167, Final residual = 2.93223e-05, No Iterations 2
time step continuity errors : sum local = 7.08823e-05, global = -7.79609e-07, cumulative = 0.0147018
smoothSolver:  Solving for omega, Initial residual = 6.89664e-06, Final residual = 3.18008e-07, No Iterations 2
smoothSolver:  Solving for k, Initial residual = 5.58965e-05, Final residual = 4.63052e-06, No Iterations 4
ExecutionTime = 1.12 s  ClockTime = 1 s

scalarTransport execute: age
smoothSolver:  Solving for age, Initial residual = 0.0020709, Final residual = 0.000191107, No Iterations 12

Time = 87

smoothSolver:  Solving for Ux, Initial residual = 0.000296794, Final residual = 2.24696e-05, No Iterations 4
smoothSolver:  Solving for Uy, Initial residual = 0.000181502, Final residual = 1.79403e-05, No Iterations 4
GAMG:  Solving for p, Initial residual = 0.000336337, Final residual = 3.2334e-05, No Iterations 2
time step continuity errors : sum local = 7.81487e-05, global = -4.16875e-07, cumulative = 0.0147013
smoothSolver:  Solving for omega, Initial residual = 8.56349e-06, Final residual = 8.30531e-07, No Iterations 1
smoothSolver:  Solving for k, Initial residual = 5.04867e-05, Final residual = 4.20125e-06, No Iterations 4
ExecutionTime = 1.13 s  ClockTime = 1 s

scalarTransport execute: age
smoothSolver:  Solving for age, Initial residual = 0.00201935, Final residual = 0.000186761, No Iterations 12

Time = 88

smoothSolver:  Solving for Ux, Initial residual = 0.000206741, Final residual = 1.30856e-05, No Iterations 5
smoothSolver:  Solving for Uy, Initial residual = 0.000151606, Final residual = 1.03903e-05, No Iterations 5
GAMG:  Solving for p, Initial residual = 0.000311602, Final residual = 3.08235e-05, No Iterations 2
time step continuity errors : sum local = 7.44851e-05, global = 2.01078e-09, cumulative = 0.0147013
smoothSolver:  Solving for omega, Initial residual = 6.3747e-06, Final residual = 2.81461e-07, No Iterations 2
smoothSolver:  Solving for k, Initial residual = 4.5868e-05, Final residual = 3.81654e-06, No Iterations 4
ExecutionTime = 1.14 s  ClockTime = 1 s

scalarTransport execute: age
smoothSolver:  Solving for age, Initial residual = 0.00197701, Final residual = 0.000178427, No Iterations 12

Time = 89

smoothSolver:  Solving for Ux, Initial residual = 0.000204191, Final residual = 1.96268e-05, No Iterations 4
smoothSolver:  Solving for Uy, Initial residual = 0.000137862, Final residual = 9.47541e-06, No Iterations 5
GAMG:  Solving for p, Initial residual = 0.000272731, Final residual = 2.57523e-05, No Iterations 2
time step continuity errors : sum local = 6.22207e-05, global = 3.77362e-07, cumulative = 0.0147017
smoothSolver:  Solving for omega, Initial residual = 4.20264e-06, Final residual = 2.33668e-07, No Iterations 2
smoothSolver:  Solving for k, Initial residual = 4.19805e-05, Final residual = 3.4714e-06, No Iterations 4
ExecutionTime = 1.15 s  ClockTime = 1 s

scalarTransport execute: age
smoothSolver:  Solving for age, Initial residual = 0.0019105, Final residual = 0.000169206, No Iterations 12

Time = 90

smoothSolver:  Solving for Ux, Initial residual = 0.000224484, Final residual = 1.81602e-05, No Iterations 4
smoothSolver:  Solving for Uy, Initial residual = 0.000238985, Final residual = 2.24392e-05, No Iterations 3
GAMG:  Solving for p, Initial residual = 0.000262313, Final residual = 2.57141e-05, No Iterations 2
time step continuity errors : sum local = 6.21204e-05, global = 5.73924e-07, cumulative = 0.0147023
smoothSolver:  Solving for omega, Initial residual = 5.5746e-06, Final residual = 2.29285e-07, No Iterations 2
smoothSolver:  Solving for k, Initial residual = 3.95198e-05, Final residual = 3.16424e-06, No Iterations 4
ExecutionTime = 1.17 s  ClockTime = 1 s

scalarTransport execute: age
smoothSolver:  Solving for age, Initial residual = 0.00188215, Final residual = 0.000162937, No Iterations 12

Time = 91

smoothSolver:  Solving for Ux, Initial residual = 0.000176041, Final residual = 1.67995e-05, No Iterations 4
smoothSolver:  Solving for Uy, Initial residual = 0.000234843, Final residual = 2.13557e-05, No Iterations 3
GAMG:  Solving for p, Initial residual = 0.000253995, Final residual = 2.45658e-05, No Iterations 2
time step continuity errors : sum local = 5.93404e-05, global = 8.16827e-07, cumulative = 0.0147031
smoothSolver:  Solving for omega, Initial residual = 7.46506e-06, Final residual = 2.53295e-07, No Iterations 2
smoothSolver:  Solving for k, Initial residual = 3.65299e-05, Final residual = 2.89153e-06, No Iterations 4
ExecutionTime = 1.18 s  ClockTime = 1 s

scalarTransport execute: age
smoothSolver:  Solving for age, Initial residual = 0.00188195, Final residual = 0.000183813, No Iterations 11

Time = 92

smoothSolver:  Solving for Ux, Initial residual = 0.000152227, Final residual = 9.57335e-06, No Iterations 5
smoothSolver:  Solving for Uy, Initial residual = 0.000116188, Final residual = 7.86724e-06, No Iterations 5
GAMG:  Solving for p, Initial residual = 0.000233726, Final residual = 2.12399e-05, No Iterations 2
time step continuity errors : sum local = 5.13004e-05, global = 1.27221e-06, cumulative = 0.0147044
smoothSolver:  Solving for omega, Initial residual = 6.73001e-06, Final residual = 2.55107e-07, No Iterations 2
smoothSolver:  Solving for k, Initial residual = 3.32887e-05, Final residual = 2.64741e-06, No Iterations 4
ExecutionTime = 1.19 s  ClockTime = 1 s

scalarTransport execute: age
smoothSolver:  Solving for age, Initial residual = 0.00186997, Final residual = 0.000179763, No Iterations 11

Time = 93

smoothSolver:  Solving for Ux, Initial residual = 0.000155262, Final residual = 1.4719e-05, No Iterations 4
smoothSolver:  Solving for Uy, Initial residual = 0.000109231, Final residual = 7.11168e-06, No Iterations 5
GAMG:  Solving for p, Initial residual = 0.00022446, Final residual = 2.03025e-05, No Iterations 2
time step continuity errors : sum local = 4.90305e-05, global = 1.67796e-06, cumulative = 0.0147061
smoothSolver:  Solving for omega, Initial residual = 5.10267e-06, Final residual = 2.02278e-07, No Iterations 2
smoothSolver:  Solving for k, Initial residual = 3.07915e-05, Final residual = 2.42829e-06, No Iterations 4
ExecutionTime = 1.2 s  ClockTime = 1 s

scalarTransport execute: age
smoothSolver:  Solving for age, Initial residual = 0.00181168, Final residual = 0.000177255, No Iterations 11

Time = 94

smoothSolver:  Solving for Ux, Initial residual = 0.000308387, Final residual = 2.05162e-05, No Iterations 3
smoothSolver:  Solving for Uy, Initial residual = 0.00089507, Final residual = 4.76747e-05, No Iterations 1
GAMG:  Solving for p, Initial residual = 0.000188893, Final residual = 1.84303e-05, No Iterations 2
time step continuity errors : sum local = 4.45062e-05, global = 1.68335e-06, cumulative = 0.0147077
smoothSolver:  Solving for omega, Initial residual = 5.48952e-06, Final residual = 5.07476e-07, No Iterations 1
smoothSolver:  Solving for k, Initial residual = 2.83393e-05, Final residual = 2.24027e-06, No Iterations 4
ExecutionTime = 1.21 s  ClockTime = 1 s

scalarTransport execute: age
smoothSolver:  Solving for age, Initial residual = 0.00176097, Final residual = 0.000151808, No Iterations 12

Time = 95

smoothSolver:  Solving for Ux, Initial residual = 0.000128803, Final residual = 1.24117e-05, No Iterations 4
smoothSolver:  Solving for Uy, Initial residual = 0.00010426, Final residual = 6.68487e-06, No Iterations 5
GAMG:  Solving for p, Initial residual = 0.000190563, Final residual = 1.50224e-05, No Iterations 2
time step continuity errors : sum local = 3.6274e-05, global = 2.02242e-06, cumulative = 0.0147098
[...]
smoothSolver:  Solving for Uy, Initial residual = 1.98471e-05, Final residual = 1.3518e-06, No Iterations 2
GAMG:  Solving for p, Initial residual = 4.37848e-05, Final residual = 3.45063e-06, No Iterations 2
time step continuity errors : sum local = 8.32222e-06, global = 1.86489e-07, cumulative = 0.0147571
smoothSolver:  Solving for omega, Initial residual = 5.33826e-06, Final residual = 2.95147e-07, No Iterations 1
smoothSolver:  Solving for k, Initial residual = 8.4981e-07, Final residual = 8.44497e-08, No Iterations 1
ExecutionTime = 22.09 s  ClockTime = 22 s

scalarTransport execute: age
smoothSolver:  Solving for age, Initial residual = 2.81029e-05, Final residual = 2.46362e-06, No Iterations 11

Time = 1978

smoothSolver:  Solving for Ux, Initial residual = 1.69655e-05, Final residual = 1.48164e-06, No Iterations 2
smoothSolver:  Solving for Uy, Initial residual = 1.89961e-05, Final residual = 1.24198e-06, No Iterations 2
GAMG:  Solving for p, Initial residual = 3.54205e-05, Final residual = 3.39237e-06, No Iterations 2
time step continuity errors : sum local = 8.18168e-06, global = 1.82888e-07, cumulative = 0.0147573
smoothSolver:  Solving for omega, Initial residual = 4.24736e-06, Final residual = 2.70292e-07, No Iterations 1
smoothSolver:  Solving for k, Initial residual = 6.95129e-07, Final residual = 3.95467e-08, No Iterations 2
ExecutionTime = 22.1 s  ClockTime = 22 s

scalarTransport execute: age
smoothSolver:  Solving for age, Initial residual = 2.54242e-05, Final residual = 2.44576e-06, No Iterations 11

Time = 1979

smoothSolver:  Solving for Ux, Initial residual = 1.77627e-05, Final residual = 1.38015e-06, No Iterations 2
smoothSolver:  Solving for Uy, Initial residual = 2.96424e-05, Final residual = 2.85602e-06, No Iterations 1
GAMG:  Solving for p, Initial residual = 3.49045e-05, Final residual = 3.07399e-06, No Iterations 2
time step continuity errors : sum local = 7.41373e-06, global = 1.88044e-07, cumulative = 0.0147575
smoothSolver:  Solving for omega, Initial residual = 6.34584e-06, Final residual = 3.84323e-07, No Iterations 1
smoothSolver:  Solving for k, Initial residual = 7.20374e-07, Final residual = 3.60914e-08, No Iterations 2
ExecutionTime = 22.11 s  ClockTime = 22 s

scalarTransport execute: age
smoothSolver:  Solving for age, Initial residual = 2.43546e-05, Final residual = 2.29722e-06, No Iterations 11

Time = 1980

smoothSolver:  Solving for Ux, Initial residual = 0.00159871, Final residual = 2.12449e-06, No Iterations 1
smoothSolver:  Solving for Uy, Initial residual = 0.000972905, Final residual = 2.61574e-06, No Iterations 1
GAMG:  Solving for p, Initial residual = 4.01206e-05, Final residual = 3.95144e-06, No Iterations 2
time step continuity errors : sum local = 9.5299e-06, global = 1.81558e-07, cumulative = 0.0147576
smoothSolver:  Solving for omega, Initial residual = 7.20469e-06, Final residual = 5.06293e-07, No Iterations 1
smoothSolver:  Solving for k, Initial residual = 1.17122e-06, Final residual = 7.13164e-08, No Iterations 1
ExecutionTime = 22.12 s  ClockTime = 22 s

scalarTransport execute: age
smoothSolver:  Solving for age, Initial residual = 2.75078e-05, Final residual = 2.53515e-06, No Iterations 11

Time = 1981

smoothSolver:  Solving for Ux, Initial residual = 0.000122526, Final residual = 3.61422e-06, No Iterations 1
smoothSolver:  Solving for Uy, Initial residual = 8.27634e-05, Final residual = 3.30269e-06, No Iterations 1
GAMG:  Solving for p, Initial residual = 5.00665e-05, Final residual = 4.06524e-06, No Iterations 2
time step continuity errors : sum local = 9.80439e-06, global = 1.71548e-07, cumulative = 0.0147578
smoothSolver:  Solving for omega, Initial residual = 6.37607e-06, Final residual = 4.8748e-07, No Iterations 1
smoothSolver:  Solving for k, Initial residual = 1.63594e-06, Final residual = 7.12801e-08, No Iterations 1
ExecutionTime = 22.13 s  ClockTime = 22 s

scalarTransport execute: age
smoothSolver:  Solving for age, Initial residual = 3.0639e-05, Final residual = 2.75529e-06, No Iterations 11

Time = 1982

smoothSolver:  Solving for Ux, Initial residual = 4.49604e-05, Final residual = 3.66963e-06, No Iterations 1
smoothSolver:  Solving for Uy, Initial residual = 1.99278e-05, Final residual = 1.30074e-06, No Iterations 2
GAMG:  Solving for p, Initial residual = 4.34733e-05, Final residual = 3.45328e-06, No Iterations 2
time step continuity errors : sum local = 8.3286e-06, global = 1.48546e-07, cumulative = 0.014758
smoothSolver:  Solving for omega, Initial residual = 6.22942e-06, Final residual = 4.74938e-07, No Iterations 1
smoothSolver:  Solving for k, Initial residual = 1.27213e-06, Final residual = 7.11382e-08, No Iterations 1
ExecutionTime = 22.14 s  ClockTime = 22 s

scalarTransport execute: age
smoothSolver:  Solving for age, Initial residual = 2.65505e-05, Final residual = 2.43502e-06, No Iterations 12

Time = 1983

smoothSolver:  Solving for Ux, Initial residual = 0.00011122, Final residual = 3.96183e-06, No Iterations 1
smoothSolver:  Solving for Uy, Initial residual = 7.86065e-05, Final residual = 2.90073e-06, No Iterations 1
GAMG:  Solving for p, Initial residual = 4.99931e-05, Final residual = 3.03689e-06, No Iterations 2
time step continuity errors : sum local = 7.32431e-06, global = 1.18431e-07, cumulative = 0.0147581
smoothSolver:  Solving for omega, Initial residual = 4.36906e-06, Final residual = 2.91672e-07, No Iterations 1
smoothSolver:  Solving for k, Initial residual = 3.36102e-06, Final residual = 1.30852e-07, No Iterations 1
ExecutionTime = 22.15 s  ClockTime = 22 s

scalarTransport execute: age
smoothSolver:  Solving for age, Initial residual = 2.42145e-05, Final residual = 2.21878e-06, No Iterations 12

Time = 1984

smoothSolver:  Solving for Ux, Initial residual = 3.26882e-05, Final residual = 1.74748e-06, No Iterations 2
smoothSolver:  Solving for Uy, Initial residual = 2.39108e-05, Final residual = 1.49688e-06, No Iterations 2
GAMG:  Solving for p, Initial residual = 5.17521e-05, Final residual = 3.57388e-06, No Iterations 2
time step continuity errors : sum local = 8.61935e-06, global = 8.46245e-08, cumulative = 0.0147582
smoothSolver:  Solving for omega, Initial residual = 4.40841e-06, Final residual = 2.83846e-07, No Iterations 1
smoothSolver:  Solving for k, Initial residual = 2.78254e-06, Final residual = 1.17808e-07, No Iterations 1
ExecutionTime = 22.16 s  ClockTime = 22 s

scalarTransport execute: age
smoothSolver:  Solving for age, Initial residual = 2.59322e-05, Final residual = 2.30582e-06, No Iterations 12

Time = 1985

smoothSolver:  Solving for Ux, Initial residual = 1.9081e-05, Final residual = 1.57374e-06, No Iterations 2
smoothSolver:  Solving for Uy, Initial residual = 1.8639e-05, Final residual = 1.25379e-06, No Iterations 2
GAMG:  Solving for p, Initial residual = 4.2202e-05, Final residual = 3.52426e-06, No Iterations 2
time step continuity errors : sum local = 8.49965e-06, global = 4.83998e-08, cumulative = 0.0147582
smoothSolver:  Solving for omega, Initial residual = 3.60503e-06, Final residual = 2.5881e-07, No Iterations 1
smoothSolver:  Solving for k, Initial residual = 1.34748e-06, Final residual = 1.051e-07, No Iterations 1
ExecutionTime = 22.17 s  ClockTime = 22 s

scalarTransport execute: age
smoothSolver:  Solving for age, Initial residual = 2.64167e-05, Final residual = 2.5565e-06, No Iterations 11

Time = 1986

smoothSolver:  Solving for Ux, Initial residual = 2.73107e-05, Final residual = 1.48437e-06, No Iterations 2
smoothSolver:  Solving for Uy, Initial residual = 1.88495e-05, Final residual = 1.18942e-06, No Iterations 2
GAMG:  Solving for p, Initial residual = 3.88332e-05, Final residual = 3.15459e-06, No Iterations 2
time step continuity errors : sum local = 7.6081e-06, global = 9.41636e-09, cumulative = 0.0147582
smoothSolver:  Solving for omega, Initial residual = 3.02366e-06, Final residual = 2.24603e-07, No Iterations 1
smoothSolver:  Solving for k, Initial residual = 9.74297e-07, Final residual = 9.63104e-08, No Iterations 1
ExecutionTime = 22.18 s  ClockTime = 22 s

scalarTransport execute: age
smoothSolver:  Solving for age, Initial residual = 2.35969e-05, Final residual = 2.19807e-06, No Iterations 12

Time = 1987

smoothSolver:  Solving for Ux, Initial residual = 2.6299e-05, Final residual = 1.30509e-06, No Iterations 2
smoothSolver:  Solving for Uy, Initial residual = 6.73354e-05, Final residual = 3.59903e-06, No Iterations 1
GAMG:  Solving for p, Initial residual = 4.47186e-05, Final residual = 3.72955e-06, No Iterations 2
time step continuity errors : sum local = 8.99477e-06, global = -2.56956e-08, cumulative = 0.0147582
smoothSolver:  Solving for omega, Initial residual = 4.10625e-06, Final residual = 2.97989e-07, No Iterations 1
smoothSolver:  Solving for k, Initial residual = 1.1784e-06, Final residual = 8.89538e-08, No Iterations 1
ExecutionTime = 22.2 s  ClockTime = 22 s

scalarTransport execute: age
smoothSolver:  Solving for age, Initial residual = 2.36254e-05, Final residual = 2.06019e-06, No Iterations 13

Time = 1988

smoothSolver:  Solving for Ux, Initial residual = 6.37581e-05, Final residual = 3.83375e-06, No Iterations 1
smoothSolver:  Solving for Uy, Initial residual = 9.64242e-05, Final residual = 3.75007e-06, No Iterations 1
GAMG:  Solving for p, Initial residual = 5.45979e-05, Final residual = 3.74946e-06, No Iterations 2
time step continuity errors : sum local = 9.04276e-06, global = -5.47856e-08, cumulative = 0.0147581
smoothSolver:  Solving for omega, Initial residual = 8.08835e-06, Final residual = 4.84045e-07, No Iterations 1
smoothSolver:  Solving for k, Initial residual = 2.27871e-06, Final residual = 1.21438e-07, No Iterations 1
ExecutionTime = 22.21 s  ClockTime = 22 s

scalarTransport execute: age
smoothSolver:  Solving for age, Initial residual = 2.96565e-05, Final residual = 2.7566e-06, No Iterations 11

Time = 1989

smoothSolver:  Solving for Ux, Initial residual = 0.000118486, Final residual = 4.47041e-06, No Iterations 1
smoothSolver:  Solving for Uy, Initial residual = 6.57192e-05, Final residual = 3.86144e-06, No Iterations 1
GAMG:  Solving for p, Initial residual = 5.22536e-05, Final residual = 3.58319e-06, No Iterations 2
time step continuity errors : sum local = 8.64174e-06, global = -7.86471e-08, cumulative = 0.0147581
smoothSolver:  Solving for omega, Initial residual = 5.62101e-06, Final residual = 3.83234e-07, No Iterations 1
smoothSolver:  Solving for k, Initial residual = 2.03635e-06, Final residual = 1.05595e-07, No Iterations 1
ExecutionTime = 22.22 s  ClockTime = 22 s

scalarTransport execute: age
smoothSolver:  Solving for age, Initial residual = 3.4747e-05, Final residual = 3.03964e-06, No Iterations 11

Time = 1990

smoothSolver:  Solving for Ux, Initial residual = 3.5889e-05, Final residual = 3.24748e-06, No Iterations 1
smoothSolver:  Solving for Uy, Initial residual = 0.000121952, Final residual = 3.88711e-06, No Iterations 1
GAMG:  Solving for p, Initial residual = 4.88843e-05, Final residual = 3.56579e-06, No Iterations 2
time step continuity errors : sum local = 8.59982e-06, global = -1.00133e-07, cumulative = 0.014758
smoothSolver:  Solving for omega, Initial residual = 5.76155e-06, Final residual = 3.6425e-07, No Iterations 1
smoothSolver:  Solving for k, Initial residual = 1.92936e-06, Final residual = 1.00511e-07, No Iterations 1
ExecutionTime = 22.23 s  ClockTime = 22 s

scalarTransport execute: age
smoothSolver:  Solving for age, Initial residual = 3.1374e-05, Final residual = 3.06833e-06, No Iterations 11

Time = 1991

smoothSolver:  Solving for Ux, Initial residual = 1.56507e-05, Final residual = 8.76012e-07, No Iterations 3
smoothSolver:  Solving for Uy, Initial residual = 1.79672e-05, Final residual = 1.53767e-06, No Iterations 2
GAMG:  Solving for p, Initial residual = 3.83509e-05, Final residual = 3.19394e-06, No Iterations 2
time step continuity errors : sum local = 7.70304e-06, global = -1.28345e-07, cumulative = 0.0147578
smoothSolver:  Solving for omega, Initial residual = 5.49868e-06, Final residual = 3.23557e-07, No Iterations 1
smoothSolver:  Solving for k, Initial residual = 1.36381e-06, Final residual = 9.88601e-08, No Iterations 1
ExecutionTime = 22.24 s  ClockTime = 22 s

scalarTransport execute: age
smoothSolver:  Solving for age, Initial residual = 3.16367e-05, Final residual = 3.01955e-06, No Iterations 11

Time = 1992

smoothSolver:  Solving for Ux, Initial residual = 1.57478e-05, Final residual = 1.35678e-06, No Iterations 2
smoothSolver:  Solving for Uy, Initial residual = 1.15587e-05, Final residual = 7.25652e-07, No Iterations 3
GAMG:  Solving for p, Initial residual = 3.26071e-05, Final residual = 2.93628e-06, No Iterations 2
time step continuity errors : sum local = 7.08163e-06, global = -1.57791e-07, cumulative = 0.0147577
smoothSolver:  Solving for omega, Initial residual = 4.21111e-06, Final residual = 2.78844e-07, No Iterations 1
smoothSolver:  Solving for k, Initial residual = 8.49155e-07, Final residual = 4.30069e-08, No Iterations 2
ExecutionTime = 22.25 s  ClockTime = 22 s

scalarTransport execute: age
smoothSolver:  Solving for age, Initial residual = 2.6824e-05, Final residual = 2.53649e-06, No Iterations 12

Time = 1993

smoothSolver:  Solving for Ux, Initial residual = 2.47652e-05, Final residual = 1.40624e-06, No Iterations 2
smoothSolver:  Solving for Uy, Initial residual = 0.000142782, Final residual = 3.29098e-06, No Iterations 1
GAMG:  Solving for p, Initial residual = 3.84796e-05, Final residual = 3.21441e-06, No Iterations 2
time step continuity errors : sum local = 7.75248e-06, global = -1.72406e-07, cumulative = 0.0147575
smoothSolver:  Solving for omega, Initial residual = 2.35742e-06, Final residual = 1.52065e-07, No Iterations 1
smoothSolver:  Solving for k, Initial residual = 1.54217e-06, Final residual = 9.60275e-08, No Iterations 1
ExecutionTime = 22.26 s  ClockTime = 22 s

scalarTransport execute: age
smoothSolver:  Solving for age, Initial residual = 2.99857e-05, Final residual = 2.75746e-06, No Iterations 11

Time = 1994

smoothSolver:  Solving for Ux, Initial residual = 1.23287e-05, Final residual = 6.86893e-07, No Iterations 3
smoothSolver:  Solving for Uy, Initial residual = 1.30654e-05, Final residual = 7.06485e-07, No Iterations 3
GAMG:  Solving for p, Initial residual = 3.06013e-05, Final residual = 2.17586e-06, No Iterations 2
time step continuity errors : sum local = 5.24771e-06, global = -1.85109e-07, cumulative = 0.0147573
smoothSolver:  Solving for omega, Initial residual = 2.67407e-06, Final residual = 1.92212e-07, No Iterations 1
smoothSolver:  Solving for k, Initial residual = 1.31194e-06, Final residual = 1.00836e-07, No Iterations 1
ExecutionTime = 22.27 s  ClockTime = 22 s

scalarTransport execute: age
smoothSolver:  Solving for age, Initial residual = 3.03407e-05, Final residual = 2.86906e-06, No Iterations 10

Time = 1995

smoothSolver:  Solving for Ux, Initial residual = 1.34353e-05, Final residual = 1.33464e-06, No Iterations 2
smoothSolver:  Solving for Uy, Initial residual = 1.73742e-05, Final residual = 1.34282e-06, No Iterations 2
GAMG:  Solving for p, Initial residual = 3.09685e-05, Final residual = 2.53408e-06, No Iterations 2
time step continuity errors : sum local = 6.11161e-06, global = -1.79023e-07, cumulative = 0.0147571
smoothSolver:  Solving for omega, Initial residual = 3.92753e-06, Final residual = 2.76811e-07, No Iterations 1
smoothSolver:  Solving for k, Initial residual = 8.94667e-07, Final residual = 4.51036e-08, No Iterations 2
ExecutionTime = 22.28 s  ClockTime = 22 s

scalarTransport execute: age
smoothSolver:  Solving for age, Initial residual = 2.63126e-05, Final residual = 2.33376e-06, No Iterations 12

Time = 1996

smoothSolver:  Solving for Ux, Initial residual = 1.18927e-05, Final residual = 7.17565e-07, No Iterations 3
smoothSolver:  Solving for Uy, Initial residual = 2.0238e-05, Final residual = 1.4288e-06, No Iterations 2
GAMG:  Solving for p, Initial residual = 3.08359e-05, Final residual = 2.40189e-06, No Iterations 2
time step continuity errors : sum local = 5.79278e-06, global = -1.57299e-07, cumulative = 0.014757
smoothSolver:  Solving for omega, Initial residual = 4.26883e-06, Final residual = 2.80582e-07, No Iterations 1
smoothSolver:  Solving for k, Initial residual = 7.78971e-07, Final residual = 4.50092e-08, No Iterations 2
ExecutionTime = 22.29 s  ClockTime = 22 s

scalarTransport execute: age
smoothSolver:  Solving for age, Initial residual = 2.77831e-05, Final residual = 2.53623e-06, No Iterations 11

Time = 1997

smoothSolver:  Solving for Ux, Initial residual = 1.32557e-05, Final residual = 1.27971e-06, No Iterations 2
smoothSolver:  Solving for Uy, Initial residual = 1.53743e-05, Final residual = 1.35975e-06, No Iterations 2
GAMG:  Solving for p, Initial residual = 3.1079e-05, Final residual = 2.5384e-06, No Iterations 2
time step continuity errors : sum local = 6.12202e-06, global = -1.32936e-07, cumulative = 0.0147568
smoothSolver:  Solving for omega, Initial residual = 3.98432e-06, Final residual = 2.458e-07, No Iterations 1
smoothSolver:  Solving for k, Initial residual = 7.86826e-07, Final residual = 4.5178e-08, No Iterations 2
ExecutionTime = 22.3 s  ClockTime = 22 s

scalarTransport execute: age
smoothSolver:  Solving for age, Initial residual = 2.82927e-05, Final residual = 2.50542e-06, No Iterations 11

Time = 1998

smoothSolver:  Solving for Ux, Initial residual = 1.12032e-05, Final residual = 6.66934e-07, No Iterations 3
smoothSolver:  Solving for Uy, Initial residual = 1.65853e-05, Final residual = 1.28537e-06, No Iterations 2
GAMG:  Solving for p, Initial residual = 2.8221e-05, Final residual = 2.20845e-06, No Iterations 2
time step continuity errors : sum local = 5.32627e-06, global = -1.05948e-07, cumulative = 0.0147567
smoothSolver:  Solving for omega, Initial residual = 5.43348e-06, Final residual = 3.14056e-07, No Iterations 1
smoothSolver:  Solving for k, Initial residual = 7.25185e-07, Final residual = 4.44785e-08, No Iterations 2
ExecutionTime = 22.31 s  ClockTime = 22 s

scalarTransport execute: age
smoothSolver:  Solving for age, Initial residual = 2.42823e-05, Final residual = 2.42031e-06, No Iterations 11

Time = 1999

smoothSolver:  Solving for Ux, Initial residual = 4.37987e-05, Final residual = 3.43435e-06, No Iterations 1
smoothSolver:  Solving for Uy, Initial residual = 1.97834e-05, Final residual = 1.3082e-06, No Iterations 2
GAMG:  Solving for p, Initial residual = 4.09501e-05, Final residual = 1.32834e-06, No Iterations 3
time step continuity errors : sum local = 3.20366e-06, global = -8.35468e-08, cumulative = 0.0147567
smoothSolver:  Solving for omega, Initial residual = 5.60868e-06, Final residual = 3.50784e-07, No Iterations 1
smoothSolver:  Solving for k, Initial residual = 9.38283e-07, Final residual = 4.34962e-08, No Iterations 2
ExecutionTime = 22.32 s  ClockTime = 22 s

scalarTransport execute: age
smoothSolver:  Solving for age, Initial residual = 2.54112e-05, Final residual = 2.31515e-06, No Iterations 12

Time = 2000

smoothSolver:  Solving for Ux, Initial residual = 2.36955e-05, Final residual = 1.50515e-06, No Iterations 2
smoothSolver:  Solving for Uy, Initial residual = 7.91974e-05, Final residual = 3.5805e-06, No Iterations 1
GAMG:  Solving for p, Initial residual = 3.75557e-05, Final residual = 3.44885e-06, No Iterations 2
time step continuity errors : sum local = 8.31788e-06, global = -6.91137e-08, cumulative = 0.0147566
smoothSolver:  Solving for omega, Initial residual = 7.21388e-06, Final residual = 4.14951e-07, No Iterations 1
smoothSolver:  Solving for k, Initial residual = 1.1051e-06, Final residual = 9.63915e-08, No Iterations 1
ExecutionTime = 22.36 s  ClockTime = 22 s

scalarTransport execute: age
smoothSolver:  Solving for age, Initial residual = 2.70657e-05, Final residual = 2.37367e-06, No Iterations 12

End

