/*---------------------------------------------------------------------------*\
| =========                 |                                                 |
| \\      /  F ield         | OpenFOAM: The Open Source CFD Toolbox           |
|  \\    /   O peration     | Version:  v2012                                 |
|   \\  /    A nd           | Website:  www.openfoam.com                      |
|    \\/     M anipulation  |                                                 |
\*---------------------------------------------------------------------------*/
Build  : _7bdb509494-20201222 OPENFOAM=2012
Arch   : "LSB;label=32;scalar=64"
Exec   : simpleFoam
Date   : Feb 24 2023
Time   : 02:08:51
Host   : johnsDesktop
PID    : 21908
I/O    : uncollated
Case   : /home/john/of_runs/cases/dbl_0_58_69_4
nProcs : 1
trapFpe: Floating point exception trapping enabled (FOAM_SIGFPE).
fileModificationChecking : Monitoring run-time modified files using timeStampMaster (fileModificationSkew 5, maxFileModificationPolls 20)
allowSystemOperations : Allowing user-supplied system call operations

// * * * * * * * * * * * * * * * * * * * * * * * * * * * * * * * * * * * * * //
Create time

Create mesh for time = 0


SIMPLE: convergence criteria
    field p	 tolerance 1e-06
    field U	 tolerance 1e-06
    field "(k|epsilon|omega|f|v2|age)"	 tolerance 1e-05

Reading field p

Reading field U

Reading/calculating face flux field phi

Selecting incompressible transport model Newtonian
Selecting turbulence model type RAS
Selecting RAS turbulence model kOmegaSST
Selecting patchDistMethod meshWave
RAS
{
    RASModel        kOmegaSST;
    turbulence      on;
    printCoeffs     on;
    alphaK1         0.85;
    alphaK2         1;
    alphaOmega1     0.5;
    alphaOmega2     0.856;
    gamma1          0.555556;
    gamma2          0.44;
    beta1           0.075;
    beta2           0.0828;
    betaStar        0.09;
    a1              0.31;
    b1              1;
    c1              10;
    F3              false;
    decayControl    false;
    kInf            0;
    omegaInf        0;
}

No MRF models present

No finite volume options present

Starting time loop

Selecting finite volume options type scalarSemiImplicitSource
    Source: unitySource
    - selecting all cells
    - selected 6502 cell(s) with volume 0.03142
Time = 1

smoothSolver:  Solving for Ux, Initial residual = 0, Final residual = 0, No Iterations 0
smoothSolver:  Solving for Uy, Initial residual = 1, Final residual = 0.0818591, No Iterations 1
GAMG:  Solving for p, Initial residual = 1, Final residual = 0.0568478, No Iterations 7
time step continuity errors : sum local = 0.00361857, global = -0.000387592, cumulative = -0.000387592
smoothSolver:  Solving for omega, Initial residual = 0.0262876, Final residual = 0.00122318, No Iterations 3
smoothSolver:  Solving for k, Initial residual = 1, Final residual = 0.0364028, No Iterations 2
ExecutionTime = 0.06 s  ClockTime = 0 s

scalarTransport execute: age
smoothSolver:  Solving for age, Initial residual = 1, Final residual = 0.0990609, No Iterations 6

Time = 2

smoothSolver:  Solving for Ux, Initial residual = 0.422804, Final residual = 0.0410804, No Iterations 5
smoothSolver:  Solving for Uy, Initial residual = 0.268003, Final residual = 0.0167991, No Iterations 5
GAMG:  Solving for p, Initial residual = 0.0534569, Final residual = 0.00194548, No Iterations 4
time step continuity errors : sum local = 0.0159013, global = 0.00126226, cumulative = 0.000874672
smoothSolver:  Solving for omega, Initial residual = 0.060005, Final residual = 0.0029833, No Iterations 1
smoothSolver:  Solving for k, Initial residual = 0.197673, Final residual = 0.0122487, No Iterations 3
ExecutionTime = 0.07 s  ClockTime = 0 s

scalarTransport execute: age
smoothSolver:  Solving for age, Initial residual = 0.531559, Final residual = 0.0529013, No Iterations 7

Time = 3

smoothSolver:  Solving for Ux, Initial residual = 0.155507, Final residual = 0.010452, No Iterations 5
smoothSolver:  Solving for Uy, Initial residual = 0.102888, Final residual = 0.00845317, No Iterations 4
GAMG:  Solving for p, Initial residual = 0.0409364, Final residual = 0.00323289, No Iterations 3
time step continuity errors : sum local = 0.0142519, global = 0.00107489, cumulative = 0.00194956
smoothSolver:  Solving for omega, Initial residual = 0.00745866, Final residual = 0.000252141, No Iterations 2
smoothSolver:  Solving for k, Initial residual = 0.0992529, Final residual = 0.00952991, No Iterations 3
ExecutionTime = 0.08 s  ClockTime = 0 s

scalarTransport execute: age
smoothSolver:  Solving for age, Initial residual = 0.27069, Final residual = 0.0267263, No Iterations 8

Time = 4

smoothSolver:  Solving for Ux, Initial residual = 0.0812809, Final residual = 0.00775291, No Iterations 4
smoothSolver:  Solving for Uy, Initial residual = 0.0579717, Final residual = 0.00448572, No Iterations 4
GAMG:  Solving for p, Initial residual = 0.0448378, Final residual = 0.00238823, No Iterations 3
time step continuity errors : sum local = 0.00778332, global = 0.000301977, cumulative = 0.00225154
smoothSolver:  Solving for omega, Initial residual = 0.00400223, Final residual = 0.000180995, No Iterations 2
smoothSolver:  Solving for k, Initial residual = 0.0654931, Final residual = 0.00477851, No Iterations 4
ExecutionTime = 0.09 s  ClockTime = 0 s

scalarTransport execute: age
smoothSolver:  Solving for age, Initial residual = 0.130033, Final residual = 0.0125027, No Iterations 9

Time = 5

smoothSolver:  Solving for Ux, Initial residual = 0.0559284, Final residual = 0.00352882, No Iterations 5
smoothSolver:  Solving for Uy, Initial residual = 0.0426495, Final residual = 0.00352614, No Iterations 4
GAMG:  Solving for p, Initial residual = 0.042956, Final residual = 0.00318616, No Iterations 2
time step continuity errors : sum local = 0.00917662, global = 0.000298324, cumulative = 0.00254986
smoothSolver:  Solving for omega, Initial residual = 0.00169544, Final residual = 0.000103726, No Iterations 2
smoothSolver:  Solving for k, Initial residual = 0.0502415, Final residual = 0.00426291, No Iterations 4
ExecutionTime = 0.11 s  ClockTime = 0 s

scalarTransport execute: age
smoothSolver:  Solving for age, Initial residual = 0.0869885, Final residual = 0.00789303, No Iterations 10

Time = 6

smoothSolver:  Solving for Ux, Initial residual = 0.0417101, Final residual = 0.00276328, No Iterations 5
smoothSolver:  Solving for Uy, Initial residual = 0.0362008, Final residual = 0.0033729, No Iterations 4
GAMG:  Solving for p, Initial residual = 0.0356917, Final residual = 0.00265447, No Iterations 2
time step continuity errors : sum local = 0.00769538, global = 0.000670076, cumulative = 0.00321994
smoothSolver:  Solving for omega, Initial residual = 0.000954493, Final residual = 7.6495e-05, No Iterations 2
smoothSolver:  Solving for k, Initial residual = 0.0415629, Final residual = 0.0039073, No Iterations 4
ExecutionTime = 0.12 s  ClockTime = 0 s

scalarTransport execute: age
smoothSolver:  Solving for age, Initial residual = 0.0664406, Final residual = 0.00623747, No Iterations 10

Time = 7

smoothSolver:  Solving for Ux, Initial residual = 0.0441537, Final residual = 0.00312517, No Iterations 5
smoothSolver:  Solving for Uy, Initial residual = 0.0331265, Final residual = 0.00327781, No Iterations 4
GAMG:  Solving for p, Initial residual = 0.0310543, Final residual = 0.0024019, No Iterations 2
time step continuity errors : sum local = 0.00696884, global = 0.000654752, cumulative = 0.00387469
smoothSolver:  Solving for omega, Initial residual = 0.000534222, Final residual = 2.87765e-05, No Iterations 3
smoothSolver:  Solving for k, Initial residual = 0.0355002, Final residual = 0.00207278, No Iterations 5
ExecutionTime = 0.13 s  ClockTime = 0 s

scalarTransport execute: age
smoothSolver:  Solving for age, Initial residual = 0.0555016, Final residual = 0.00533941, No Iterations 10

Time = 8

smoothSolver:  Solving for Ux, Initial residual = 0.0397967, Final residual = 0.00286968, No Iterations 5
smoothSolver:  Solving for Uy, Initial residual = 0.0308848, Final residual = 0.00197694, No Iterations 5
GAMG:  Solving for p, Initial residual = 0.0300218, Final residual = 0.00219811, No Iterations 2
time step continuity errors : sum local = 0.00636882, global = 0.000611347, cumulative = 0.00448604
smoothSolver:  Solving for omega, Initial residual = 0.000326292, Final residual = 2.16979e-05, No Iterations 3
smoothSolver:  Solving for k, Initial residual = 0.0312377, Final residual = 0.00191392, No Iterations 5
ExecutionTime = 0.15 s  ClockTime = 0 s

scalarTransport execute: age
smoothSolver:  Solving for age, Initial residual = 0.0473439, Final residual = 0.004083, No Iterations 11

Time = 9

smoothSolver:  Solving for Ux, Initial residual = 0.0381969, Final residual = 0.00277877, No Iterations 5
smoothSolver:  Solving for Uy, Initial residual = 0.0285609, Final residual = 0.00188059, No Iterations 5
GAMG:  Solving for p, Initial residual = 0.0291095, Final residual = 0.00208964, No Iterations 2
time step continuity errors : sum local = 0.00607102, global = 0.000575138, cumulative = 0.00506117
smoothSolver:  Solving for omega, Initial residual = 0.000230116, Final residual = 1.64287e-05, No Iterations 3
smoothSolver:  Solving for k, Initial residual = 0.0281207, Final residual = 0.00177385, No Iterations 5
ExecutionTime = 0.16 s  ClockTime = 0 s

scalarTransport execute: age
smoothSolver:  Solving for age, Initial residual = 0.0413657, Final residual = 0.00378656, No Iterations 11

Time = 10

smoothSolver:  Solving for Ux, Initial residual = 0.0359266, Final residual = 0.00260533, No Iterations 5
smoothSolver:  Solving for Uy, Initial residual = 0.026875, Final residual = 0.00177118, No Iterations 5
GAMG:  Solving for p, Initial residual = 0.028438, Final residual = 0.00201207, No Iterations 2
time step continuity errors : sum local = 0.00586522, global = 0.000547646, cumulative = 0.00560882
smoothSolver:  Solving for omega, Initial residual = 0.000163793, Final residual = 1.31721e-05, No Iterations 3
smoothSolver:  Solving for k, Initial residual = 0.0257428, Final residual = 0.00165259, No Iterations 5
ExecutionTime = 0.17 s  ClockTime = 0 s

scalarTransport execute: age
smoothSolver:  Solving for age, Initial residual = 0.0392342, Final residual = 0.00360771, No Iterations 11

Time = 11

smoothSolver:  Solving for Ux, Initial residual = 0.0340616, Final residual = 0.00244049, No Iterations 5
smoothSolver:  Solving for Uy, Initial residual = 0.0254421, Final residual = 0.00166108, No Iterations 5
GAMG:  Solving for p, Initial residual = 0.0283023, Final residual = 0.00198785, No Iterations 2
time step continuity errors : sum local = 0.00581049, global = 0.000537924, cumulative = 0.00614674
smoothSolver:  Solving for omega, Initial residual = 0.000136643, Final residual = 1.07334e-05, No Iterations 3
smoothSolver:  Solving for k, Initial residual = 0.0238319, Final residual = 0.00154292, No Iterations 5
ExecutionTime = 0.18 s  ClockTime = 0 s

scalarTransport execute: age
smoothSolver:  Solving for age, Initial residual = 0.0378459, Final residual = 0.0034033, No Iterations 11

Time = 12

smoothSolver:  Solving for Ux, Initial residual = 0.0322726, Final residual = 0.00226159, No Iterations 5
smoothSolver:  Solving for Uy, Initial residual = 0.0240657, Final residual = 0.0015504, No Iterations 5
GAMG:  Solving for p, Initial residual = 0.0281497, Final residual = 0.0019898, No Iterations 2
time step continuity errors : sum local = 0.00582894, global = 0.000550292, cumulative = 0.00669704
smoothSolver:  Solving for omega, Initial residual = 0.000119046, Final residual = 8.96282e-06, No Iterations 3
smoothSolver:  Solving for k, Initial residual = 0.0222458, Final residual = 0.00144324, No Iterations 5
ExecutionTime = 0.2 s  ClockTime = 0 s

scalarTransport execute: age
smoothSolver:  Solving for age, Initial residual = 0.0365778, Final residual = 0.00313642, No Iterations 11

Time = 13

smoothSolver:  Solving for Ux, Initial residual = 0.0304648, Final residual = 0.00207914, No Iterations 5
smoothSolver:  Solving for Uy, Initial residual = 0.0225687, Final residual = 0.00143823, No Iterations 5
GAMG:  Solving for p, Initial residual = 0.0277109, Final residual = 0.00199311, No Iterations 2
time step continuity errors : sum local = 0.00584886, global = 0.000582541, cumulative = 0.00727958
smoothSolver:  Solving for omega, Initial residual = 0.000109584, Final residual = 7.60916e-06, No Iterations 3
smoothSolver:  Solving for k, Initial residual = 0.02087, Final residual = 0.00135083, No Iterations 5
ExecutionTime = 0.21 s  ClockTime = 0 s

scalarTransport execute: age
smoothSolver:  Solving for age, Initial residual = 0.0350673, Final residual = 0.00342354, No Iterations 10

Time = 14

smoothSolver:  Solving for Ux, Initial residual = 0.0211083, Final residual = 0.00210179, No Iterations 4
smoothSolver:  Solving for Uy, Initial residual = 0.0215149, Final residual = 0.00132563, No Iterations 5
GAMG:  Solving for p, Initial residual = 0.0263214, Final residual = 0.00190416, No Iterations 2
time step continuity errors : sum local = 0.00559091, global = 0.000626023, cumulative = 0.0079056
smoothSolver:  Solving for omega, Initial residual = 0.000117403, Final residual = 6.47437e-06, No Iterations 3
smoothSolver:  Solving for k, Initial residual = 0.019634, Final residual = 0.00126318, No Iterations 5
ExecutionTime = 0.22 s  ClockTime = 0 s

scalarTransport execute: age
smoothSolver:  Solving for age, Initial residual = 0.0327196, Final residual = 0.00324781, No Iterations 10

Time = 15

smoothSolver:  Solving for Ux, Initial residual = 0.0256428, Final residual = 0.00165971, No Iterations 5
smoothSolver:  Solving for Uy, Initial residual = 0.0191433, Final residual = 0.00120461, No Iterations 5
GAMG:  Solving for p, Initial residual = 0.0256785, Final residual = 0.0020221, No Iterations 2
time step continuity errors : sum local = 0.00592789, global = 0.000672738, cumulative = 0.00857834
smoothSolver:  Solving for omega, Initial residual = 0.000114923, Final residual = 5.72203e-06, No Iterations 3
smoothSolver:  Solving for k, Initial residual = 0.0185188, Final residual = 0.0011782, No Iterations 5
ExecutionTime = 0.23 s  ClockTime = 0 s

scalarTransport execute: age
smoothSolver:  Solving for age, Initial residual = 0.0304788, Final residual = 0.00264782, No Iterations 11

Time = 16

smoothSolver:  Solving for Ux, Initial residual = 0.0247049, Final residual = 0.00159793, No Iterations 5
smoothSolver:  Solving for Uy, Initial residual = 0.0173402, Final residual = 0.00110725, No Iterations 5
GAMG:  Solving for p, Initial residual = 0.0243547, Final residual = 0.00197501, No Iterations 2
time step continuity errors : sum local = 0.00576826, global = 0.000713688, cumulative = 0.00929203
smoothSolver:  Solving for omega, Initial residual = 0.000119707, Final residual = 1.03664e-05, No Iterations 2
smoothSolver:  Solving for k, Initial residual = 0.0174941, Final residual = 0.00109887, No Iterations 5
ExecutionTime = 0.26 s  ClockTime = 0 s

scalarTransport execute: age
smoothSolver:  Solving for age, Initial residual = 0.0274243, Final residual = 0.00244808, No Iterations 11

Time = 17

smoothSolver:  Solving for Ux, Initial residual = 0.021601, Final residual = 0.00136768, No Iterations 5
smoothSolver:  Solving for Uy, Initial residual = 0.01588, Final residual = 0.00101697, No Iterations 5
GAMG:  Solving for p, Initial residual = 0.0226802, Final residual = 0.00187696, No Iterations 2
time step continuity errors : sum local = 0.00544753, global = 0.000728292, cumulative = 0.0100203
smoothSolver:  Solving for omega, Initial residual = 0.000109755, Final residual = 9.85354e-06, No Iterations 2
smoothSolver:  Solving for k, Initial residual = 0.0164666, Final residual = 0.00102172, No Iterations 5
ExecutionTime = 0.27 s  ClockTime = 0 s

scalarTransport execute: age
smoothSolver:  Solving for age, Initial residual = 0.0243614, Final residual = 0.00224445, No Iterations 11

Time = 18

smoothSolver:  Solving for Ux, Initial residual = 0.0203343, Final residual = 0.001304, No Iterations 5
smoothSolver:  Solving for Uy, Initial residual = 0.0144938, Final residual = 0.000935312, No Iterations 5
GAMG:  Solving for p, Initial residual = 0.0210588, Final residual = 0.00175947, No Iterations 2
time step continuity errors : sum local = 0.00506059, global = 0.000699428, cumulative = 0.0107197
smoothSolver:  Solving for omega, Initial residual = 9.67205e-05, Final residual = 9.07224e-06, No Iterations 2
smoothSolver:  Solving for k, Initial residual = 0.0154243, Final residual = 0.000946679, No Iterations 5
ExecutionTime = 0.28 s  ClockTime = 0 s

scalarTransport execute: age
smoothSolver:  Solving for age, Initial residual = 0.0214386, Final residual = 0.00202992, No Iterations 11

Time = 19

smoothSolver:  Solving for Ux, Initial residual = 0.0181686, Final residual = 0.00116259, No Iterations 5
smoothSolver:  Solving for Uy, Initial residual = 0.0132332, Final residual = 0.000864453, No Iterations 5
GAMG:  Solving for p, Initial residual = 0.0194755, Final residual = 0.00168689, No Iterations 2
time step continuity errors : sum local = 0.00479539, global = 0.000661542, cumulative = 0.0113813
smoothSolver:  Solving for omega, Initial residual = 8.57563e-05, Final residual = 8.30897e-06, No Iterations 2
smoothSolver:  Solving for k, Initial residual = 0.014362, Final residual = 0.000874118, No Iterations 5
ExecutionTime = 0.29 s  ClockTime = 0 s

scalarTransport execute: age
smoothSolver:  Solving for age, Initial residual = 0.0186717, Final residual = 0.0018346, No Iterations 11

Time = 20

smoothSolver:  Solving for Ux, Initial residual = 0.0167053, Final residual = 0.00109134, No Iterations 5
smoothSolver:  Solving for Uy, Initial residual = 0.0120236, Final residual = 0.0008021, No Iterations 5
GAMG:  Solving for p, Initial residual = 0.017895, Final residual = 0.00155936, No Iterations 2
time step continuity errors : sum local = 0.00438304, global = 0.000603736, cumulative = 0.011985
smoothSolver:  Solving for omega, Initial residual = 7.57491e-05, Final residual = 3.66084e-06, No Iterations 3
smoothSolver:  Solving for k, Initial residual = 0.0132665, Final residual = 0.000803195, No Iterations 5
ExecutionTime = 0.3 s  ClockTime = 0 s

scalarTransport execute: age
smoothSolver:  Solving for age, Initial residual = 0.0165013, Final residual = 0.00147298, No Iterations 12

Time = 21

smoothSolver:  Solving for Ux, Initial residual = 0.0152126, Final residual = 0.00101334, No Iterations 5
smoothSolver:  Solving for Uy, Initial residual = 0.010987, Final residual = 0.000747569, No Iterations 5
GAMG:  Solving for p, Initial residual = 0.0162952, Final residual = 0.00142769, No Iterations 2
time step continuity errors : sum local = 0.00396511, global = 0.000531536, cumulative = 0.0125166
smoothSolver:  Solving for omega, Initial residual = 7.04384e-05, Final residual = 6.5136e-06, No Iterations 2
smoothSolver:  Solving for k, Initial residual = 0.0121978, Final residual = 0.000737612, No Iterations 5
ExecutionTime = 0.32 s  ClockTime = 0 s

scalarTransport execute: age
smoothSolver:  Solving for age, Initial residual = 0.0149443, Final residual = 0.00141111, No Iterations 12

Time = 22

smoothSolver:  Solving for Ux, Initial residual = 0.01338, Final residual = 0.000895675, No Iterations 5
smoothSolver:  Solving for Uy, Initial residual = 0.0101826, Final residual = 0.000700062, No Iterations 5
GAMG:  Solving for p, Initial residual = 0.0148184, Final residual = 0.00125536, No Iterations 2
time step continuity errors : sum local = 0.00344661, global = 0.00044119, cumulative = 0.0129578
smoothSolver:  Solving for omega, Initial residual = 8.90519e-05, Final residual = 6.63139e-06, No Iterations 2
smoothSolver:  Solving for k, Initial residual = 0.0111742, Final residual = 0.000677413, No Iterations 5
ExecutionTime = 0.33 s  ClockTime = 0 s

scalarTransport execute: age
smoothSolver:  Solving for age, Initial residual = 0.0141881, Final residual = 0.00125615, No Iterations 13

Time = 23

smoothSolver:  Solving for Ux, Initial residual = 0.0128172, Final residual = 0.000898914, No Iterations 5
smoothSolver:  Solving for Uy, Initial residual = 0.00929482, Final residual = 0.000659253, No Iterations 5
GAMG:  Solving for p, Initial residual = 0.0134264, Final residual = 0.00116906, No Iterations 2
time step continuity errors : sum local = 0.00317559, global = 0.00034513, cumulative = 0.0133029
smoothSolver:  Solving for omega, Initial residual = 8.67196e-05, Final residual = 6.2661e-06, No Iterations 2
smoothSolver:  Solving for k, Initial residual = 0.0102071, Final residual = 0.000621896, No Iterations 5
ExecutionTime = 0.34 s  ClockTime = 0 s

scalarTransport execute: age
smoothSolver:  Solving for age, Initial residual = 0.0146135, Final residual = 0.0014029, No Iterations 13

Time = 24

smoothSolver:  Solving for Ux, Initial residual = 0.0117792, Final residual = 0.000849073, No Iterations 5
smoothSolver:  Solving for Uy, Initial residual = 0.00857946, Final residual = 0.000621686, No Iterations 5
GAMG:  Solving for p, Initial residual = 0.0122604, Final residual = 0.00115456, No Iterations 2
time step continuity errors : sum local = 0.00310585, global = 0.000266179, cumulative = 0.0135691
smoothSolver:  Solving for omega, Initial residual = 7.63528e-05, Final residual = 5.71621e-06, No Iterations 2
smoothSolver:  Solving for k, Initial residual = 0.00931221, Final residual = 0.000571567, No Iterations 5
ExecutionTime = 0.35 s  ClockTime = 0 s

scalarTransport execute: age
smoothSolver:  Solving for age, Initial residual = 0.0152099, Final residual = 0.00150578, No Iterations 13

Time = 25

smoothSolver:  Solving for Ux, Initial residual = 0.0110301, Final residual = 0.000822189, No Iterations 5
smoothSolver:  Solving for Uy, Initial residual = 0.00791286, Final residual = 0.000584702, No Iterations 5
GAMG:  Solving for p, Initial residual = 0.0112282, Final residual = 0.00110749, No Iterations 2
time step continuity errors : sum local = 0.00295527, global = 0.000206761, cumulative = 0.0137758
smoothSolver:  Solving for omega, Initial residual = 7.28087e-05, Final residual = 5.38053e-06, No Iterations 2
smoothSolver:  Solving for k, Initial residual = 0.00851761, Final residual = 0.000526414, No Iterations 5
ExecutionTime = 0.37 s  ClockTime = 0 s

scalarTransport execute: age
smoothSolver:  Solving for age, Initial residual = 0.0152627, Final residual = 0.00152175, No Iterations 13

Time = 26

smoothSolver:  Solving for Ux, Initial residual = 0.00951082, Final residual = 0.000725789, No Iterations 5
smoothSolver:  Solving for Uy, Initial residual = 0.0078144, Final residual = 0.000549561, No Iterations 5
GAMG:  Solving for p, Initial residual = 0.0101427, Final residual = 0.000488294, No Iterations 3
time step continuity errors : sum local = 0.00129405, global = 0.000117262, cumulative = 0.0138931
smoothSolver:  Solving for omega, Initial residual = 6.55981e-05, Final residual = 4.99267e-06, No Iterations 2
smoothSolver:  Solving for k, Initial residual = 0.00785602, Final residual = 0.000486622, No Iterations 5
ExecutionTime = 0.38 s  ClockTime = 0 s

scalarTransport execute: age
smoothSolver:  Solving for age, Initial residual = 0.0147625, Final residual = 0.00147442, No Iterations 13

Time = 27

smoothSolver:  Solving for Ux, Initial residual = 0.00948301, Final residual = 0.000733481, No Iterations 5
smoothSolver:  Solving for Uy, Initial residual = 0.00710542, Final residual = 0.000529701, No Iterations 5
GAMG:  Solving for p, Initial residual = 0.00862778, Final residual = 0.000317532, No Iterations 3
time step continuity errors : sum local = 0.000834261, global = 4.36285e-05, cumulative = 0.0139367
smoothSolver:  Solving for omega, Initial residual = 7.09214e-05, Final residual = 5.02921e-06, No Iterations 2
smoothSolver:  Solving for k, Initial residual = 0.00726565, Final residual = 0.000450642, No Iterations 5
ExecutionTime = 0.39 s  ClockTime = 0 s

scalarTransport execute: age
smoothSolver:  Solving for age, Initial residual = 0.0140986, Final residual = 0.00136041, No Iterations 13

Time = 28

smoothSolver:  Solving for Ux, Initial residual = 0.00928633, Final residual = 0.00073965, No Iterations 5
smoothSolver:  Solving for Uy, Initial residual = 0.00643694, Final residual = 0.000499512, No Iterations 5
GAMG:  Solving for p, Initial residual = 0.00812, Final residual = 0.000355008, No Iterations 3
time step continuity errors : sum local = 0.000928193, global = -1.35627e-07, cumulative = 0.0139366
smoothSolver:  Solving for omega, Initial residual = 6.28618e-05, Final residual = 4.84779e-06, No Iterations 2
smoothSolver:  Solving for k, Initial residual = 0.0066921, Final residual = 0.000417424, No Iterations 5
ExecutionTime = 0.4 s  ClockTime = 0 s

scalarTransport execute: age
smoothSolver:  Solving for age, Initial residual = 0.0130978, Final residual = 0.00119574, No Iterations 13

Time = 29

smoothSolver:  Solving for Ux, Initial residual = 0.00896947, Final residual = 0.000723877, No Iterations 5
smoothSolver:  Solving for Uy, Initial residual = 0.00602509, Final residual = 0.000474249, No Iterations 5
GAMG:  Solving for p, Initial residual = 0.00747243, Final residual = 0.000360236, No Iterations 3
time step continuity errors : sum local = 0.000938263, global = -2.82381e-05, cumulative = 0.0139083
smoothSolver:  Solving for omega, Initial residual = 4.91086e-05, Final residual = 4.37939e-06, No Iterations 2
smoothSolver:  Solving for k, Initial residual = 0.00617224, Final residual = 0.000386719, No Iterations 5
ExecutionTime = 0.42 s  ClockTime = 0 s

scalarTransport execute: age
smoothSolver:  Solving for age, Initial residual = 0.0120739, Final residual = 0.00117805, No Iterations 12

Time = 30

smoothSolver:  Solving for Ux, Initial residual = 0.00759974, Final residual = 0.000598443, No Iterations 5
smoothSolver:  Solving for Uy, Initial residual = 0.00679988, Final residual = 0.000452248, No Iterations 5
GAMG:  Solving for p, Initial residual = 0.00688722, Final residual = 0.000336911, No Iterations 3
time step continuity errors : sum local = 0.000874774, global = -4.59024e-05, cumulative = 0.0138624
smoothSolver:  Solving for omega, Initial residual = 4.12301e-05, Final residual = 2.03763e-06, No Iterations 3
smoothSolver:  Solving for k, Initial residual = 0.00571332, Final residual = 0.000358001, No Iterations 5
ExecutionTime = 0.43 s  ClockTime = 0 s

scalarTransport execute: age
smoothSolver:  Solving for age, Initial residual = 0.0110719, Final residual = 0.000999335, No Iterations 12

Time = 31

smoothSolver:  Solving for Ux, Initial residual = 0.00843819, Final residual = 0.000688955, No Iterations 5
smoothSolver:  Solving for Uy, Initial residual = 0.00544429, Final residual = 0.0004339, No Iterations 5
GAMG:  Solving for p, Initial residual = 0.0063928, Final residual = 0.00031894, No Iterations 3
time step continuity errors : sum local = 0.000825896, global = -5.27582e-05, cumulative = 0.0138097
smoothSolver:  Solving for omega, Initial residual = 4.20776e-05, Final residual = 3.82767e-06, No Iterations 2
smoothSolver:  Solving for k, Initial residual = 0.00533396, Final residual = 0.000330918, No Iterations 5
ExecutionTime = 0.44 s  ClockTime = 0 s

scalarTransport execute: age
smoothSolver:  Solving for age, Initial residual = 0.0101805, Final residual = 0.000998076, No Iterations 11

Time = 32

smoothSolver:  Solving for Ux, Initial residual = 0.00817946, Final residual = 0.000672746, No Iterations 5
smoothSolver:  Solving for Uy, Initial residual = 0.00518806, Final residual = 0.000415686, No Iterations 5
GAMG:  Solving for p, Initial residual = 0.00597868, Final residual = 0.000307753, No Iterations 3
time step continuity errors : sum local = 0.000795052, global = -4.86968e-05, cumulative = 0.013761
smoothSolver:  Solving for omega, Initial residual = 3.29431e-05, Final residual = 1.83968e-06, No Iterations 3
smoothSolver:  Solving for k, Initial residual = 0.00500106, Final residual = 0.000305486, No Iterations 5
ExecutionTime = 0.46 s  ClockTime = 0 s

scalarTransport execute: age
smoothSolver:  Solving for age, Initial residual = 0.00954277, Final residual = 0.000886689, No Iterations 11

Time = 33

smoothSolver:  Solving for Ux, Initial residual = 0.00793143, Final residual = 0.000655665, No Iterations 5
smoothSolver:  Solving for Uy, Initial residual = 0.00498569, Final residual = 0.000399565, No Iterations 5
GAMG:  Solving for p, Initial residual = 0.00562673, Final residual = 0.000297613, No Iterations 3
time step continuity errors : sum local = 0.00076721, global = -3.45987e-05, cumulative = 0.0137264
smoothSolver:  Solving for omega, Initial residual = 3.14108e-05, Final residual = 1.71215e-06, No Iterations 3
smoothSolver:  Solving for k, Initial residual = 0.00469148, Final residual = 0.000281357, No Iterations 5
ExecutionTime = 0.47 s  ClockTime = 0 s

scalarTransport execute: age
smoothSolver:  Solving for age, Initial residual = 0.00894536, Final residual = 0.000808799, No Iterations 11

Time = 34

smoothSolver:  Solving for Ux, Initial residual = 0.00770033, Final residual = 0.000641367, No Iterations 5
smoothSolver:  Solving for Uy, Initial residual = 0.00481079, Final residual = 0.000385295, No Iterations 5
GAMG:  Solving for p, Initial residual = 0.00534002, Final residual = 0.000289174, No Iterations 3
time step continuity errors : sum local = 0.000743946, global = -1.171e-05, cumulative = 0.0137147
smoothSolver:  Solving for omega, Initial residual = 3.07955e-05, Final residual = 1.62635e-06, No Iterations 3
smoothSolver:  Solving for k, Initial residual = 0.004389, Final residual = 0.000258468, No Iterations 5
ExecutionTime = 0.48 s  ClockTime = 0 s

scalarTransport execute: age
smoothSolver:  Solving for age, Initial residual = 0.00847508, Final residual = 0.000751775, No Iterations 11

Time = 35

smoothSolver:  Solving for Ux, Initial residual = 0.0073145, Final residual = 0.000609501, No Iterations 5
smoothSolver:  Solving for Uy, Initial residual = 0.00482775, Final residual = 0.00037281, No Iterations 5
GAMG:  Solving for p, Initial residual = 0.00513073, Final residual = 0.000285278, No Iterations 3
time step continuity errors : sum local = 0.000732443, global = 1.78856e-05, cumulative = 0.0137326
smoothSolver:  Solving for omega, Initial residual = 3.25369e-05, Final residual = 1.5906e-06, No Iterations 3
smoothSolver:  Solving for k, Initial residual = 0.0040963, Final residual = 0.000403886, No Iterations 4
ExecutionTime = 0.49 s  ClockTime = 0 s

scalarTransport execute: age
smoothSolver:  Solving for age, Initial residual = 0.00811332, Final residual = 0.000715393, No Iterations 11

Time = 36

smoothSolver:  Solving for Ux, Initial residual = 0.00725988, Final residual = 0.000612103, No Iterations 5
smoothSolver:  Solving for Uy, Initial residual = 0.00453308, Final residual = 0.000363145, No Iterations 5
GAMG:  Solving for p, Initial residual = 0.00496499, Final residual = 0.000278687, No Iterations 3
time step continuity errors : sum local = 0.000714035, global = 4.00274e-05, cumulative = 0.0137726
smoothSolver:  Solving for omega, Initial residual = 4.23151e-05, Final residual = 3.26513e-06, No Iterations 2
smoothSolver:  Solving for k, Initial residual = 0.00380669, Final residual = 0.000371063, No Iterations 4
ExecutionTime = 0.51 s  ClockTime = 0 s

scalarTransport execute: age
smoothSolver:  Solving for age, Initial residual = 0.00785651, Final residual = 0.000689784, No Iterations 11

Time = 37

smoothSolver:  Solving for Ux, Initial residual = 0.00702946, Final residual = 0.000595489, No Iterations 5
smoothSolver:  Solving for Uy, Initial residual = 0.00441913, Final residual = 0.000356219, No Iterations 5
GAMG:  Solving for p, Initial residual = 0.00481583, Final residual = 0.000273195, No Iterations 3
time step continuity errors : sum local = 0.000697991, global = 5.3562e-05, cumulative = 0.0138261
smoothSolver:  Solving for omega, Initial residual = 3.97242e-05, Final residual = 3.49951e-06, No Iterations 2
smoothSolver:  Solving for k, Initial residual = 0.00351032, Final residual = 0.000339802, No Iterations 4
ExecutionTime = 0.52 s  ClockTime = 0 s

scalarTransport execute: age
smoothSolver:  Solving for age, Initial residual = 0.00768922, Final residual = 0.000677157, No Iterations 11

Time = 38

smoothSolver:  Solving for Ux, Initial residual = 0.00671724, Final residual = 0.000567225, No Iterations 5
smoothSolver:  Solving for Uy, Initial residual = 0.00447686, Final residual = 0.000350299, No Iterations 5
GAMG:  Solving for p, Initial residual = 0.00474461, Final residual = 0.000269072, No Iterations 3
time step continuity errors : sum local = 0.000685343, global = 6.0068e-05, cumulative = 0.0138862
smoothSolver:  Solving for omega, Initial residual = 3.77581e-05, Final residual = 3.58108e-06, No Iterations 2
smoothSolver:  Solving for k, Initial residual = 0.00322154, Final residual = 0.000309977, No Iterations 4
ExecutionTime = 0.53 s  ClockTime = 0 s

scalarTransport execute: age
smoothSolver:  Solving for age, Initial residual = 0.00754798, Final residual = 0.000671338, No Iterations 11

Time = 39

smoothSolver:  Solving for Ux, Initial residual = 0.00664141, Final residual = 0.000564686, No Iterations 5
smoothSolver:  Solving for Uy, Initial residual = 0.00424456, Final residual = 0.000345017, No Iterations 5
GAMG:  Solving for p, Initial residual = 0.00470518, Final residual = 0.000239429, No Iterations 3
time step continuity errors : sum local = 0.000607979, global = 5.51616e-05, cumulative = 0.0139414
smoothSolver:  Solving for omega, Initial residual = 3.61243e-05, Final residual = 1.77568e-06, No Iterations 3
smoothSolver:  Solving for k, Initial residual = 0.00294856, Final residual = 0.000281714, No Iterations 4
ExecutionTime = 0.55 s  ClockTime = 0 s

scalarTransport execute: age
smoothSolver:  Solving for age, Initial residual = 0.00740326, Final residual = 0.000669332, No Iterations 11

Time = 40

smoothSolver:  Solving for Ux, Initial residual = 0.00644529, Final residual = 0.00054796, No Iterations 5
smoothSolver:  Solving for Uy, Initial residual = 0.00416101, Final residual = 0.000339004, No Iterations 5
GAMG:  Solving for p, Initial residual = 0.00467052, Final residual = 0.000231407, No Iterations 3
time step continuity errors : sum local = 0.000585695, global = 5.12425e-05, cumulative = 0.0139926
smoothSolver:  Solving for omega, Initial residual = 3.47974e-05, Final residual = 1.72424e-06, No Iterations 3
smoothSolver:  Solving for k, Initial residual = 0.00270615, Final residual = 0.000254862, No Iterations 4
ExecutionTime = 0.56 s  ClockTime = 0 s

scalarTransport execute: age
smoothSolver:  Solving for age, Initial residual = 0.00727565, Final residual = 0.000667548, No Iterations 11

Time = 41

smoothSolver:  Solving for Ux, Initial residual = 0.00624558, Final residual = 0.000530651, No Iterations 5
smoothSolver:  Solving for Uy, Initial residual = 0.00407245, Final residual = 0.000332177, No Iterations 5
GAMG:  Solving for p, Initial residual = 0.00461997, Final residual = 0.000224692, No Iterations 3
time step continuity errors : sum local = 0.00056708, global = 4.92584e-05, cumulative = 0.0140419
smoothSolver:  Solving for omega, Initial residual = 3.35424e-05, Final residual = 1.68999e-06, No Iterations 3
smoothSolver:  Solving for k, Initial residual = 0.00247374, Final residual = 0.000229646, No Iterations 4
ExecutionTime = 0.57 s  ClockTime = 0 s

scalarTransport execute: age
smoothSolver:  Solving for age, Initial residual = 0.00709576, Final residual = 0.000664407, No Iterations 11

Time = 42

smoothSolver:  Solving for Ux, Initial residual = 0.00602538, Final residual = 0.000510033, No Iterations 5
smoothSolver:  Solving for Uy, Initial residual = 0.00398088, Final residual = 0.000324837, No Iterations 5
GAMG:  Solving for p, Initial residual = 0.00456803, Final residual = 0.000217285, No Iterations 3
time step continuity errors : sum local = 0.000546905, global = 4.85753e-05, cumulative = 0.0140905
smoothSolver:  Solving for omega, Initial residual = 3.82347e-05, Final residual = 3.51558e-06, No Iterations 2
smoothSolver:  Solving for k, Initial residual = 0.00225702, Final residual = 0.000206059, No Iterations 4
ExecutionTime = 0.58 s  ClockTime = 0 s

scalarTransport execute: age
smoothSolver:  Solving for age, Initial residual = 0.00688962, Final residual = 0.000663873, No Iterations 11

Time = 43

smoothSolver:  Solving for Ux, Initial residual = 0.00579667, Final residual = 0.000489473, No Iterations 5
smoothSolver:  Solving for Uy, Initial residual = 0.00387804, Final residual = 0.000316466, No Iterations 5
GAMG:  Solving for p, Initial residual = 0.00448151, Final residual = 0.000208151, No Iterations 3
time step continuity errors : sum local = 0.000522481, global = 4.79976e-05, cumulative = 0.0141385
smoothSolver:  Solving for omega, Initial residual = 3.32752e-05, Final residual = 1.67946e-06, No Iterations 3
smoothSolver:  Solving for k, Initial residual = 0.00205852, Final residual = 0.000184391, No Iterations 4
ExecutionTime = 0.6 s  ClockTime = 0 s

scalarTransport execute: age
smoothSolver:  Solving for age, Initial residual = 0.00665034, Final residual = 0.000663214, No Iterations 11

Time = 44

smoothSolver:  Solving for Ux, Initial residual = 0.00553782, Final residual = 0.000463561, No Iterations 5
smoothSolver:  Solving for Uy, Initial residual = 0.00376443, Final residual = 0.000306763, No Iterations 5
GAMG:  Solving for p, Initial residual = 0.00439457, Final residual = 0.000198672, No Iterations 3
time step continuity errors : sum local = 0.000497236, global = 4.66559e-05, cumulative = 0.0141851
smoothSolver:  Solving for omega, Initial residual = 5.206e-05, Final residual = 3.41308e-06, No Iterations 2
smoothSolver:  Solving for k, Initial residual = 0.00187048, Final residual = 0.000164528, No Iterations 4
ExecutionTime = 0.61 s  ClockTime = 0 s

scalarTransport execute: age
smoothSolver:  Solving for age, Initial residual = 0.00635317, Final residual = 0.000569905, No Iterations 12

Time = 45

smoothSolver:  Solving for Ux, Initial residual = 0.00527429, Final residual = 0.000443419, No Iterations 5
smoothSolver:  Solving for Uy, Initial residual = 0.00362579, Final residual = 0.000296022, No Iterations 5
GAMG:  Solving for p, Initial residual = 0.00428036, Final residual = 0.000190686, No Iterations 3
time step continuity errors : sum local = 0.00047584, global = 4.4612e-05, cumulative = 0.0142297
smoothSolver:  Solving for omega, Initial residual = 5.25315e-05, Final residual = 3.42948e-06, No Iterations 2
smoothSolver:  Solving for k, Initial residual = 0.00169243, Final residual = 0.00014653, No Iterations 4
ExecutionTime = 0.62 s  ClockTime = 0 s

scalarTransport execute: age
smoothSolver:  Solving for age, Initial residual = 0.00603663, Final residual = 0.000553618, No Iterations 12

Time = 46

smoothSolver:  Solving for Ux, Initial residual = 0.00498428, Final residual = 0.00041803, No Iterations 5
smoothSolver:  Solving for Uy, Initial residual = 0.00347186, Final residual = 0.000284248, No Iterations 5
GAMG:  Solving for p, Initial residual = 0.00413574, Final residual = 0.000184777, No Iterations 3
time step continuity errors : sum local = 0.000459722, global = 4.29215e-05, cumulative = 0.0142726
smoothSolver:  Solving for omega, Initial residual = 4.24369e-05, Final residual = 3.29016e-06, No Iterations 2
smoothSolver:  Solving for k, Initial residual = 0.00152607, Final residual = 0.000130459, No Iterations 4
ExecutionTime = 0.63 s  ClockTime = 0 s

scalarTransport execute: age
smoothSolver:  Solving for age, Initial residual = 0.00565643, Final residual = 0.000532354, No Iterations 12

Time = 47

smoothSolver:  Solving for Ux, Initial residual = 0.00469848, Final residual = 0.000390624, No Iterations 5
smoothSolver:  Solving for Uy, Initial residual = 0.00333834, Final residual = 0.000271358, No Iterations 5
GAMG:  Solving for p, Initial residual = 0.00400836, Final residual = 0.000178634, No Iterations 3
time step continuity errors : sum local = 0.000443157, global = 4.0595e-05, cumulative = 0.0143132
smoothSolver:  Solving for omega, Initial residual = 3.61095e-05, Final residual = 3.17856e-06, No Iterations 2
smoothSolver:  Solving for k, Initial residual = 0.00138052, Final residual = 0.00011633, No Iterations 4
ExecutionTime = 0.65 s  ClockTime = 0 s

scalarTransport execute: age
smoothSolver:  Solving for age, Initial residual = 0.00530506, Final residual = 0.000509083, No Iterations 12

Time = 48

smoothSolver:  Solving for Ux, Initial residual = 0.00441154, Final residual = 0.000367991, No Iterations 5
smoothSolver:  Solving for Uy, Initial residual = 0.00315736, Final residual = 0.000257841, No Iterations 5
GAMG:  Solving for p, Initial residual = 0.00379233, Final residual = 0.000172117, No Iterations 3
time step continuity errors : sum local = 0.000425782, global = 3.73694e-05, cumulative = 0.0143506
smoothSolver:  Solving for omega, Initial residual = 3.37666e-05, Final residual = 3.01319e-06, No Iterations 2
smoothSolver:  Solving for k, Initial residual = 0.00125043, Final residual = 0.000103887, No Iterations 4
ExecutionTime = 0.66 s  ClockTime = 0 s

scalarTransport execute: age
smoothSolver:  Solving for age, Initial residual = 0.00494771, Final residual = 0.000483379, No Iterations 12

Time = 49

smoothSolver:  Solving for Ux, Initial residual = 0.00411589, Final residual = 0.000342163, No Iterations 5
smoothSolver:  Solving for Uy, Initial residual = 0.00297121, Final residual = 0.000243497, No Iterations 5
GAMG:  Solving for p, Initial residual = 0.00359404, Final residual = 0.000167155, No Iterations 3
time step continuity errors : sum local = 0.000412394, global = 3.28059e-05, cumulative = 0.0143834
smoothSolver:  Solving for omega, Initial residual = 2.72486e-05, Final residual = 1.39618e-06, No Iterations 3
smoothSolver:  Solving for k, Initial residual = 0.00114159, Final residual = 9.29452e-05, No Iterations 4
ExecutionTime = 0.67 s  ClockTime = 0 s

scalarTransport execute: age
smoothSolver:  Solving for age, Initial residual = 0.00459027, Final residual = 0.000457661, No Iterations 12

Time = 50

smoothSolver:  Solving for Ux, Initial residual = 0.00384457, Final residual = 0.000318072, No Iterations 5
smoothSolver:  Solving for Uy, Initial residual = 0.00279384, Final residual = 0.000228668, No Iterations 5
GAMG:  Solving for p, Initial residual = 0.00337685, Final residual = 0.000164659, No Iterations 3
time step continuity errors : sum local = 0.000405207, global = 2.78672e-05, cumulative = 0.0144113
smoothSolver:  Solving for omega, Initial residual = 2.22606e-05, Final residual = 1.20416e-06, No Iterations 3
smoothSolver:  Solving for k, Initial residual = 0.00104672, Final residual = 8.33436e-05, No Iterations 4
ExecutionTime = 0.68 s  ClockTime = 0 s

scalarTransport execute: age
smoothSolver:  Solving for age, Initial residual = 0.0042456, Final residual = 0.000374186, No Iterations 13

Time = 51

smoothSolver:  Solving for Ux, Initial residual = 0.00360493, Final residual = 0.000294658, No Iterations 5
smoothSolver:  Solving for Uy, Initial residual = 0.00261954, Final residual = 0.000213974, No Iterations 5
GAMG:  Solving for p, Initial residual = 0.00317836, Final residual = 0.000162524, No Iterations 3
time step continuity errors : sum local = 0.00039904, global = 2.32221e-05, cumulative = 0.0144345
smoothSolver:  Solving for omega, Initial residual = 2.45697e-05, Final residual = 2.18914e-06, No Iterations 2
smoothSolver:  Solving for k, Initial residual = 0.000963925, Final residual = 7.49198e-05, No Iterations 4
ExecutionTime = 0.7 s  ClockTime = 0 s

scalarTransport execute: age
smoothSolver:  Solving for age, Initial residual = 0.00391997, Final residual = 0.000348403, No Iterations 13

Time = 52

smoothSolver:  Solving for Ux, Initial residual = 0.00341822, Final residual = 0.000247799, No Iterations 5
smoothSolver:  Solving for Uy, Initial residual = 0.00315108, Final residual = 0.000200446, No Iterations 5
GAMG:  Solving for p, Initial residual = 0.00297704, Final residual = 0.000160352, No Iterations 3
time step continuity errors : sum local = 0.000392902, global = 2.14145e-05, cumulative = 0.0144559
smoothSolver:  Solving for omega, Initial residual = 1.94376e-05, Final residual = 1.0205e-06, No Iterations 3
smoothSolver:  Solving for k, Initial residual = 0.000889731, Final residual = 6.76371e-05, No Iterations 4
ExecutionTime = 0.71 s  ClockTime = 0 s

scalarTransport execute: age
smoothSolver:  Solving for age, Initial residual = 0.00364235, Final residual = 0.000322834, No Iterations 13

Time = 53

smoothSolver:  Solving for Ux, Initial residual = 0.00318417, Final residual = 0.000256461, No Iterations 5
smoothSolver:  Solving for Uy, Initial residual = 0.00230594, Final residual = 0.000188116, No Iterations 5
GAMG:  Solving for p, Initial residual = 0.00280404, Final residual = 0.000151162, No Iterations 3
time step continuity errors : sum local = 0.000369762, global = 1.6718e-05, cumulative = 0.0144726
smoothSolver:  Solving for omega, Initial residual = 1.69047e-05, Final residual = 9.00158e-07, No Iterations 3
smoothSolver:  Solving for k, Initial residual = 0.000826869, Final residual = 6.13554e-05, No Iterations 4
ExecutionTime = 0.72 s  ClockTime = 0 s

scalarTransport execute: age
smoothSolver:  Solving for age, Initial residual = 0.00341195, Final residual = 0.000296708, No Iterations 13

Time = 54

smoothSolver:  Solving for Ux, Initial residual = 0.00297655, Final residual = 0.000239157, No Iterations 5
smoothSolver:  Solving for Uy, Initial residual = 0.00217079, Final residual = 0.000175221, No Iterations 5
GAMG:  Solving for p, Initial residual = 0.00262444, Final residual = 0.000150422, No Iterations 3
time step continuity errors : sum local = 0.000367296, global = 1.27983e-05, cumulative = 0.0144854
smoothSolver:  Solving for omega, Initial residual = 1.81024e-05, Final residual = 1.60447e-06, No Iterations 2
smoothSolver:  Solving for k, Initial residual = 0.00077424, Final residual = 5.5975e-05, No Iterations 4
ExecutionTime = 0.74 s  ClockTime = 0 s

scalarTransport execute: age
smoothSolver:  Solving for age, Initial residual = 0.0032645, Final residual = 0.000318977, No Iterations 12

Time = 55

smoothSolver:  Solving for Ux, Initial residual = 0.00279806, Final residual = 0.000223127, No Iterations 5
smoothSolver:  Solving for Uy, Initial residual = 0.00203032, Final residual = 0.000162546, No Iterations 5
GAMG:  Solving for p, Initial residual = 0.00247931, Final residual = 0.00014512, No Iterations 3
time step continuity errors : sum local = 0.000353859, global = 8.64544e-06, cumulative = 0.0144941
smoothSolver:  Solving for omega, Initial residual = 1.89107e-05, Final residual = 1.59124e-06, No Iterations 2
smoothSolver:  Solving for k, Initial residual = 0.000730541, Final residual = 5.14351e-05, No Iterations 4
ExecutionTime = 0.75 s  ClockTime = 0 s

scalarTransport execute: age
smoothSolver:  Solving for age, Initial residual = 0.00315711, Final residual = 0.000303584, No Iterations 12

Time = 56

smoothSolver:  Solving for Ux, Initial residual = 0.00262918, Final residual = 0.000207867, No Iterations 5
smoothSolver:  Solving for Uy, Initial residual = 0.00188679, Final residual = 0.000150314, No Iterations 5
GAMG:  Solving for p, Initial residual = 0.00233568, Final residual = 0.000138618, No Iterations 3
time step continuity errors : sum local = 0.00033756, global = 3.29991e-06, cumulative = 0.0144974
smoothSolver:  Solving for omega, Initial residual = 2.22776e-05, Final residual = 1.54233e-06, No Iterations 2
smoothSolver:  Solving for k, Initial residual = 0.000696773, Final residual = 4.76482e-05, No Iterations 4
ExecutionTime = 0.76 s  ClockTime = 1 s

scalarTransport execute: age
smoothSolver:  Solving for age, Initial residual = 0.00306553, Final residual = 0.000291821, No Iterations 12

Time = 57

smoothSolver:  Solving for Ux, Initial residual = 0.00246944, Final residual = 0.000193824, No Iterations 5
smoothSolver:  Solving for Uy, Initial residual = 0.00175639, Final residual = 0.000138374, No Iterations 5
GAMG:  Solving for p, Initial residual = 0.00221027, Final residual = 0.00013432, No Iterations 3
time step continuity errors : sum local = 0.0003267, global = -3.68437e-06, cumulative = 0.0144937
smoothSolver:  Solving for omega, Initial residual = 1.87224e-05, Final residual = 1.42869e-06, No Iterations 2
smoothSolver:  Solving for k, Initial residual = 0.00066708, Final residual = 4.46029e-05, No Iterations 4
ExecutionTime = 0.76 s  ClockTime = 1 s

scalarTransport execute: age
smoothSolver:  Solving for age, Initial residual = 0.00298816, Final residual = 0.000281866, No Iterations 12

Time = 58

smoothSolver:  Solving for Ux, Initial residual = 0.00232074, Final residual = 0.000181054, No Iterations 5
smoothSolver:  Solving for Uy, Initial residual = 0.00163475, Final residual = 0.00012704, No Iterations 5
GAMG:  Solving for p, Initial residual = 0.00209202, Final residual = 0.000128569, No Iterations 3
time step continuity errors : sum local = 0.000312371, global = -1.21914e-05, cumulative = 0.0144815
smoothSolver:  Solving for omega, Initial residual = 1.70142e-05, Final residual = 1.29421e-06, No Iterations 2
smoothSolver:  Solving for k, Initial residual = 0.000638658, Final residual = 4.21487e-05, No Iterations 4
ExecutionTime = 0.78 s  ClockTime = 1 s

scalarTransport execute: age
smoothSolver:  Solving for age, Initial residual = 0.00292119, Final residual = 0.000272267, No Iterations 12

Time = 59

smoothSolver:  Solving for Ux, Initial residual = 0.00217972, Final residual = 0.000169106, No Iterations 5
smoothSolver:  Solving for Uy, Initial residual = 0.00152794, Final residual = 0.000116471, No Iterations 5
GAMG:  Solving for p, Initial residual = 0.00198628, Final residual = 0.000118663, No Iterations 3
time step continuity errors : sum local = 0.00028802, global = -2.00353e-05, cumulative = 0.0144615
smoothSolver:  Solving for omega, Initial residual = 1.25141e-05, Final residual = 1.20358e-06, No Iterations 2
smoothSolver:  Solving for k, Initial residual = 0.000610526, Final residual = 3.99407e-05, No Iterations 4
ExecutionTime = 0.79 s  ClockTime = 1 s

scalarTransport execute: age
smoothSolver:  Solving for age, Initial residual = 0.00288396, Final residual = 0.000262661, No Iterations 12

Time = 60

smoothSolver:  Solving for Ux, Initial residual = 0.00206759, Final residual = 0.000157857, No Iterations 5
smoothSolver:  Solving for Uy, Initial residual = 0.00142124, Final residual = 0.000106715, No Iterations 5
GAMG:  Solving for p, Initial residual = 0.00187728, Final residual = 0.000105951, No Iterations 3
time step continuity errors : sum local = 0.000256966, global = -2.56357e-05, cumulative = 0.0144358
smoothSolver:  Solving for omega, Initial residual = 1.85523e-05, Final residual = 1.22932e-06, No Iterations 2
smoothSolver:  Solving for k, Initial residual = 0.000580544, Final residual = 3.78455e-05, No Iterations 4
ExecutionTime = 0.8 s  ClockTime = 1 s

scalarTransport execute: age
smoothSolver:  Solving for age, Initial residual = 0.0028986, Final residual = 0.000253311, No Iterations 12

Time = 61

smoothSolver:  Solving for Ux, Initial residual = 0.00193317, Final residual = 0.000148479, No Iterations 5
smoothSolver:  Solving for Uy, Initial residual = 0.00132354, Final residual = 9.79481e-05, No Iterations 5
GAMG:  Solving for p, Initial residual = 0.00176403, Final residual = 9.13351e-05, No Iterations 3
time step continuity errors : sum local = 0.000221398, global = -2.5956e-05, cumulative = 0.0144099
smoothSolver:  Solving for omega, Initial residual = 1.33491e-05, Final residual = 1.13934e-06, No Iterations 2
smoothSolver:  Solving for k, Initial residual = 0.000548016, Final residual = 3.58156e-05, No Iterations 4
ExecutionTime = 0.83 s  ClockTime = 1 s

scalarTransport execute: age
smoothSolver:  Solving for age, Initial residual = 0.00294461, Final residual = 0.000283619, No Iterations 11

Time = 62

smoothSolver:  Solving for Ux, Initial residual = 0.00495839, Final residual = 4.89844e-05, No Iterations 1
smoothSolver:  Solving for Uy, Initial residual = 0.0204113, Final residual = 0.000648582, No Iterations 1
GAMG:  Solving for p, Initial residual = 0.00106324, Final residual = 4.6256e-05, No Iterations 3
time step continuity errors : sum local = 0.000112132, global = -1.13674e-05, cumulative = 0.0143985
smoothSolver:  Solving for omega, Initial residual = 9.55192e-06, Final residual = 6.80463e-07, No Iterations 2
smoothSolver:  Solving for k, Initial residual = 0.000483028, Final residual = 3.38625e-05, No Iterations 4
ExecutionTime = 0.84 s  ClockTime = 1 s

scalarTransport execute: age
smoothSolver:  Solving for age, Initial residual = 0.00290992, Final residual = 0.000268734, No Iterations 11

Time = 63

smoothSolver:  Solving for Ux, Initial residual = 0.00174048, Final residual = 0.000135414, No Iterations 5
smoothSolver:  Solving for Uy, Initial residual = 0.00118729, Final residual = 8.88765e-05, No Iterations 5
GAMG:  Solving for p, Initial residual = 0.00164148, Final residual = 8.56809e-05, No Iterations 3
time step continuity errors : sum local = 0.000207733, global = -1.41713e-05, cumulative = 0.0143843
smoothSolver:  Solving for omega, Initial residual = 1.39914e-05, Final residual = 1.03453e-06, No Iterations 2
smoothSolver:  Solving for k, Initial residual = 0.000453856, Final residual = 3.19504e-05, No Iterations 4
ExecutionTime = 0.84 s  ClockTime = 1 s

scalarTransport execute: age
smoothSolver:  Solving for age, Initial residual = 0.00291519, Final residual = 0.000264106, No Iterations 11

Time = 64

smoothSolver:  Solving for Ux, Initial residual = 0.00172313, Final residual = 0.000125696, No Iterations 5
smoothSolver:  Solving for Uy, Initial residual = 0.00112044, Final residual = 8.1387e-05, No Iterations 5
GAMG:  Solving for p, Initial residual = 0.00159009, Final residual = 8.96966e-05, No Iterations 3
time step continuity errors : sum local = 0.000217332, global = -1.97558e-05, cumulative = 0.0143646
smoothSolver:  Solving for omega, Initial residual = 1.66676e-05, Final residual = 1.0796e-06, No Iterations 2
smoothSolver:  Solving for k, Initial residual = 0.000438551, Final residual = 3.00828e-05, No Iterations 4
ExecutionTime = 0.85 s  ClockTime = 1 s

scalarTransport execute: age
smoothSolver:  Solving for age, Initial residual = 0.00290773, Final residual = 0.000264778, No Iterations 11

Time = 65

smoothSolver:  Solving for Ux, Initial residual = 0.00154376, Final residual = 0.000119223, No Iterations 5
smoothSolver:  Solving for Uy, Initial residual = 0.00104854, Final residual = 7.57511e-05, No Iterations 5
GAMG:  Solving for p, Initial residual = 0.00145179, Final residual = 7.57187e-05, No Iterations 3
time step continuity errors : sum local = 0.000183381, global = -2.0765e-05, cumulative = 0.0143438
smoothSolver:  Solving for omega, Initial residual = 1.52784e-05, Final residual = 1.05602e-06, No Iterations 2
smoothSolver:  Solving for k, Initial residual = 0.000418717, Final residual = 2.82507e-05, No Iterations 4
ExecutionTime = 0.86 s  ClockTime = 1 s

scalarTransport execute: age
smoothSolver:  Solving for age, Initial residual = 0.00293006, Final residual = 0.000269994, No Iterations 11

Time = 66

smoothSolver:  Solving for Ux, Initial residual = 0.00143608, Final residual = 0.000111042, No Iterations 5
smoothSolver:  Solving for Uy, Initial residual = 0.000987879, Final residual = 7.16726e-05, No Iterations 5
GAMG:  Solving for p, Initial residual = 0.00135111, Final residual = 6.9282e-05, No Iterations 3
time step continuity errors : sum local = 0.000167768, global = -2.06616e-05, cumulative = 0.0143232
smoothSolver:  Solving for omega, Initial residual = 1.48638e-05, Final residual = 1.01478e-06, No Iterations 2
smoothSolver:  Solving for k, Initial residual = 0.000392662, Final residual = 2.64611e-05, No Iterations 4
ExecutionTime = 0.88 s  ClockTime = 1 s

scalarTransport execute: age
smoothSolver:  Solving for age, Initial residual = 0.0029699, Final residual = 0.000280281, No Iterations 11

Time = 67

smoothSolver:  Solving for Ux, Initial residual = 0.000627677, Final residual = 3.25175e-06, No Iterations 1
smoothSolver:  Solving for Uy, Initial residual = 0.502167, Final residual = 0.000171238, No Iterations 1
GAMG:  Solving for p, Initial residual = 0.000822324, Final residual = 7.89379e-05, No Iterations 2
time step continuity errors : sum local = 0.000191172, global = -1.71584e-05, cumulative = 0.014306
smoothSolver:  Solving for omega, Initial residual = 1.13173e-06, Final residual = 9.72465e-08, No Iterations 2
smoothSolver:  Solving for k, Initial residual = 0.000344719, Final residual = 2.47683e-05, No Iterations 4
ExecutionTime = 0.89 s  ClockTime = 1 s

scalarTransport execute: age
smoothSolver:  Solving for age, Initial residual = 0.00300621, Final residual = 0.000295268, No Iterations 11

Time = 68

smoothSolver:  Solving for Ux, Initial residual = 0.00127543, Final residual = 0.000101183, No Iterations 5
smoothSolver:  Solving for Uy, Initial residual = 0.000876536, Final residual = 6.61135e-05, No Iterations 5
GAMG:  Solving for p, Initial residual = 0.00129597, Final residual = 6.60021e-05, No Iterations 3
time step continuity errors : sum local = 0.000159808, global = -1.90545e-05, cumulative = 0.0142869
smoothSolver:  Solving for omega, Initial residual = 1.6001e-05, Final residual = 9.10177e-07, No Iterations 2
smoothSolver:  Solving for k, Initial residual = 0.000318486, Final residual = 2.30535e-05, No Iterations 4
ExecutionTime = 0.9 s  ClockTime = 1 s

scalarTransport execute: age
smoothSolver:  Solving for age, Initial residual = 0.00299891, Final residual = 0.00026587, No Iterations 12

Time = 69

smoothSolver:  Solving for Ux, Initial residual = 0.00118505, Final residual = 9.2287e-05, No Iterations 5
smoothSolver:  Solving for Uy, Initial residual = 0.000829836, Final residual = 6.20612e-05, No Iterations 5
GAMG:  Solving for p, Initial residual = 0.00114436, Final residual = 5.96086e-05, No Iterations 3
time step continuity errors : sum local = 0.000144302, global = -1.76624e-05, cumulative = 0.0142693
smoothSolver:  Solving for omega, Initial residual = 1.21191e-05, Final residual = 8.8148e-07, No Iterations 2
smoothSolver:  Solving for k, Initial residual = 0.00030116, Final residual = 2.14024e-05, No Iterations 4
ExecutionTime = 0.91 s  ClockTime = 1 s

scalarTransport execute: age
smoothSolver:  Solving for age, Initial residual = 0.00288421, Final residual = 0.000271566, No Iterations 12

Time = 70

smoothSolver:  Solving for Ux, Initial residual = 0.00107928, Final residual = 8.34691e-05, No Iterations 5
smoothSolver:  Solving for Uy, Initial residual = 0.000868191, Final residual = 5.80517e-05, No Iterations 5
GAMG:  Solving for p, Initial residual = 0.00107148, Final residual = 4.59601e-05, No Iterations 3
time step continuity errors : sum local = 0.00011127, global = -1.37657e-05, cumulative = 0.0142555
smoothSolver:  Solving for omega, Initial residual = 1.1523e-05, Final residual = 8.28932e-07, No Iterations 2
smoothSolver:  Solving for k, Initial residual = 0.000279575, Final residual = 1.98132e-05, No Iterations 4
ExecutionTime = 0.93 s  ClockTime = 1 s

scalarTransport execute: age
smoothSolver:  Solving for age, Initial residual = 0.0027667, Final residual = 0.00027533, No Iterations 12

Time = 71

smoothSolver:  Solving for Ux, Initial residual = 0.000406173, Final residual = 3.21131e-05, No Iterations 3
smoothSolver:  Solving for Uy, Initial residual = 0.0328807, Final residual = 0.000372465, No Iterations 1
GAMG:  Solving for p, Initial residual = 0.000892225, Final residual = 3.73234e-05, No Iterations 3
time step continuity errors : sum local = 9.03766e-05, global = -1.00643e-05, cumulative = 0.0142454
smoothSolver:  Solving for omega, Initial residual = 1.06278e-05, Final residual = 6.39167e-07, No Iterations 2
smoothSolver:  Solving for k, Initial residual = 0.000254714, Final residual = 1.83122e-05, No Iterations 4
ExecutionTime = 0.94 s  ClockTime = 1 s

scalarTransport execute: age
smoothSolver:  Solving for age, Initial residual = 0.00265029, Final residual = 0.000239326, No Iterations 13

Time = 72

smoothSolver:  Solving for Ux, Initial residual = 0.000867241, Final residual = 6.61301e-05, No Iterations 5
smoothSolver:  Solving for Uy, Initial residual = 0.000757886, Final residual = 5.823e-05, No Iterations 5
GAMG:  Solving for p, Initial residual = 0.000949488, Final residual = 3.3835e-05, No Iterations 3
time step continuity errors : sum local = 8.19275e-05, global = -1.04778e-05, cumulative = 0.014235
smoothSolver:  Solving for omega, Initial residual = 1.53665e-05, Final residual = 7.71189e-07, No Iterations 2
smoothSolver:  Solving for k, Initial residual = 0.000230751, Final residual = 1.68506e-05, No Iterations 4
ExecutionTime = 0.95 s  ClockTime = 1 s

scalarTransport execute: age
smoothSolver:  Solving for age, Initial residual = 0.00252891, Final residual = 0.000233232, No Iterations 13

Time = 73

smoothSolver:  Solving for Ux, Initial residual = 0.00081615, Final residual = 6.35779e-05, No Iterations 5
smoothSolver:  Solving for Uy, Initial residual = 0.000662496, Final residual = 5.0154e-05, No Iterations 5
GAMG:  Solving for p, Initial residual = 0.00084814, Final residual = 3.15508e-05, No Iterations 3
time step continuity errors : sum local = 7.63838e-05, global = -9.77498e-06, cumulative = 0.0142252
smoothSolver:  Solving for omega, Initial residual = 1.25942e-05, Final residual = 7.19092e-07, No Iterations 2
smoothSolver:  Solving for k, Initial residual = 0.000210147, Final residual = 1.54693e-05, No Iterations 4
ExecutionTime = 0.96 s  ClockTime = 1 s

scalarTransport execute: age
smoothSolver:  Solving for age, Initial residual = 0.00241898, Final residual = 0.000223011, No Iterations 13

Time = 74

smoothSolver:  Solving for Ux, Initial residual = 0.000808873, Final residual = 5.82779e-05, No Iterations 5
smoothSolver:  Solving for Uy, Initial residual = 0.000587242, Final residual = 4.47083e-05, No Iterations 5
GAMG:  Solving for p, Initial residual = 0.000807734, Final residual = 2.9878e-05, No Iterations 3
time step continuity errors : sum local = 7.23296e-05, global = -8.65341e-06, cumulative = 0.0142165
smoothSolver:  Solving for omega, Initial residual = 1.40288e-05, Final residual = 6.89727e-07, No Iterations 2
smoothSolver:  Solving for k, Initial residual = 0.000191817, Final residual = 1.41668e-05, No Iterations 4
ExecutionTime = 0.98 s  ClockTime = 1 s

scalarTransport execute: age
smoothSolver:  Solving for age, Initial residual = 0.0023684, Final residual = 0.000216445, No Iterations 13

Time = 75

smoothSolver:  Solving for Ux, Initial residual = 0.000695019, Final residual = 5.33452e-05, No Iterations 5
smoothSolver:  Solving for Uy, Initial residual = 0.000531256, Final residual = 4.06321e-05, No Iterations 5
GAMG:  Solving for p, Initial residual = 0.00073334, Final residual = 7.19735e-05, No Iterations 2
time step continuity errors : sum local = 0.000174229, global = -8.19409e-06, cumulative = 0.0142083
smoothSolver:  Solving for omega, Initial residual = 1.33856e-05, Final residual = 6.28153e-07, No Iterations 2
smoothSolver:  Solving for k, Initial residual = 0.000172551, Final residual = 1.29477e-05, No Iterations 4
ExecutionTime = 0.99 s  ClockTime = 1 s

scalarTransport execute: age
smoothSolver:  Solving for age, Initial residual = 0.00227136, Final residual = 0.00020589, No Iterations 13

Time = 76

smoothSolver:  Solving for Ux, Initial residual = 0.000655773, Final residual = 4.83793e-05, No Iterations 5
smoothSolver:  Solving for Uy, Initial residual = 0.000481377, Final residual = 3.70362e-05, No Iterations 5
GAMG:  Solving for p, Initial residual = 0.000716598, Final residual = 2.7237e-05, No Iterations 3
time step continuity errors : sum local = 6.5922e-05, global = -8.34665e-06, cumulative = 0.0142
smoothSolver:  Solving for omega, Initial residual = 7.22774e-06, Final residual = 5.37106e-07, No Iterations 2
smoothSolver:  Solving for k, Initial residual = 0.000156149, Final residual = 1.18061e-05, No Iterations 4
ExecutionTime = 1 s  ClockTime = 1 s

scalarTransport execute: age
smoothSolver:  Solving for age, Initial residual = 0.00218466, Final residual = 0.000194758, No Iterations 13

Time = 77

smoothSolver:  Solving for Ux, Initial residual = 0.000556756, Final residual = 4.25259e-05, No Iterations 5
smoothSolver:  Solving for Uy, Initial residual = 0.000438835, Final residual = 3.33995e-05, No Iterations 5
GAMG:  Solving for p, Initial residual = 0.000586788, Final residual = 4.9283e-05, No Iterations 2
time step continuity errors : sum local = 0.000119291, global = -6.84004e-06, cumulative = 0.0141932
smoothSolver:  Solving for omega, Initial residual = 8.1963e-06, Final residual = 5.22095e-07, No Iterations 2
smoothSolver:  Solving for k, Initial residual = 0.000140886, Final residual = 1.07506e-05, No Iterations 4
ExecutionTime = 1.01 s  ClockTime = 1 s

scalarTransport execute: age
smoothSolver:  Solving for age, Initial residual = 0.00210547, Final residual = 0.000183152, No Iterations 13

Time = 78

smoothSolver:  Solving for Ux, Initial residual = 0.000502995, Final residual = 3.8757e-05, No Iterations 5
smoothSolver:  Solving for Uy, Initial residual = 0.00038078, Final residual = 3.01064e-05, No Iterations 5
GAMG:  Solving for p, Initial residual = 0.000568642, Final residual = 5.15632e-05, No Iterations 2
time step continuity errors : sum local = 0.000124796, global = -5.7203e-06, cumulative = 0.0141874
smoothSolver:  Solving for omega, Initial residual = 7.52921e-06, Final residual = 4.92741e-07, No Iterations 2
smoothSolver:  Solving for k, Initial residual = 0.000127155, Final residual = 9.77491e-06, No Iterations 4
ExecutionTime = 1.03 s  ClockTime = 1 s

scalarTransport execute: age
smoothSolver:  Solving for age, Initial residual = 0.00204246, Final residual = 0.000201338, No Iterations 12

Time = 79

smoothSolver:  Solving for Ux, Initial residual = 0.000503681, Final residual = 4.27687e-05, No Iterations 4
smoothSolver:  Solving for Uy, Initial residual = 0.00224546, Final residual = 0.000185793, No Iterations 1
GAMG:  Solving for p, Initial residual = 0.000516728, Final residual = 1.79934e-05, No Iterations 3
time step continuity errors : sum local = 4.35447e-05, global = -5.86221e-06, cumulative = 0.0141816
smoothSolver:  Solving for omega, Initial residual = 5.59017e-06, Final residual = 3.87444e-07, No Iterations 2
smoothSolver:  Solving for k, Initial residual = 0.000113406, Final residual = 8.87179e-06, No Iterations 4
ExecutionTime = 1.04 s  ClockTime = 1 s

scalarTransport execute: age
smoothSolver:  Solving for age, Initial residual = 0.00198455, Final residual = 0.000193513, No Iterations 12

Time = 80

smoothSolver:  Solving for Ux, Initial residual = 0.000389387, Final residual = 2.755e-05, No Iterations 5
smoothSolver:  Solving for Uy, Initial residual = 0.000367706, Final residual = 2.84377e-05, No Iterations 5
GAMG:  Solving for p, Initial residual = 0.000474215, Final residual = 2.99162e-05, No Iterations 2
time step continuity errors : sum local = 7.24045e-05, global = -3.62287e-06, cumulative = 0.014178
smoothSolver:  Solving for omega, Initial residual = 9.0784e-06, Final residual = 4.48708e-07, No Iterations 2
smoothSolver:  Solving for k, Initial residual = 0.000106295, Final residual = 8.0425e-06, No Iterations 4
ExecutionTime = 1.05 s  ClockTime = 1 s

scalarTransport execute: age
smoothSolver:  Solving for age, Initial residual = 0.00191961, Final residual = 0.000184882, No Iterations 12

Time = 81

smoothSolver:  Solving for Ux, Initial residual = 0.000380359, Final residual = 2.67618e-05, No Iterations 5
smoothSolver:  Solving for Uy, Initial residual = 0.00030683, Final residual = 2.35488e-05, No Iterations 5
GAMG:  Solving for p, Initial residual = 0.000432791, Final residual = 3.19366e-05, No Iterations 2
time step continuity errors : sum local = 7.72886e-05, global = -9.93335e-07, cumulative = 0.014177
smoothSolver:  Solving for omega, Initial residual = 8.84822e-06, Final residual = 3.89066e-07, No Iterations 2
smoothSolver:  Solving for k, Initial residual = 9.94084e-05, Final residual = 7.28342e-06, No Iterations 4
ExecutionTime = 1.06 s  ClockTime = 1 s

scalarTransport execute: age
smoothSolver:  Solving for age, Initial residual = 0.00186116, Final residual = 0.000177731, No Iterations 12

Time = 82

smoothSolver:  Solving for Ux, Initial residual = 0.00034125, Final residual = 2.51976e-05, No Iterations 5
smoothSolver:  Solving for Uy, Initial residual = 0.000262112, Final residual = 1.96827e-05, No Iterations 5
GAMG:  Solving for p, Initial residual = 0.000399725, Final residual = 3.36862e-05, No Iterations 2
time step continuity errors : sum local = 8.15118e-05, global = 5.3534e-07, cumulative = 0.0141775
smoothSolver:  Solving for omega, Initial residual = 5.22893e-06, Final residual = 3.3256e-07, No Iterations 2
smoothSolver:  Solving for k, Initial residual = 9.35429e-05, Final residual = 6.58877e-06, No Iterations 4
ExecutionTime = 1.08 s  ClockTime = 1 s

scalarTransport execute: age
smoothSolver:  Solving for age, Initial residual = 0.00180565, Final residual = 0.000171671, No Iterations 12

Time = 83

smoothSolver:  Solving for Ux, Initial residual = 0.000312274, Final residual = 2.28032e-05, No Iterations 5
smoothSolver:  Solving for Uy, Initial residual = 0.000232591, Final residual = 1.68865e-05, No Iterations 5
GAMG:  Solving for p, Initial residual = 0.000372058, Final residual = 3.40612e-05, No Iterations 2
time step continuity errors : sum local = 8.24077e-05, global = 1.82173e-06, cumulative = 0.0141793
smoothSolver:  Solving for omega, Initial residual = 4.50716e-06, Final residual = 2.94303e-07, No Iterations 2
smoothSolver:  Solving for k, Initial residual = 8.82512e-05, Final residual = 5.95463e-06, No Iterations 4
ExecutionTime = 1.09 s  ClockTime = 1 s

scalarTransport execute: age
smoothSolver:  Solving for age, Initial residual = 0.00176425, Final residual = 0.000167618, No Iterations 12

Time = 84

smoothSolver:  Solving for Ux, Initial residual = 0.000286333, Final residual = 2.04113e-05, No Iterations 5
smoothSolver:  Solving for Uy, Initial residual = 0.000222019, Final residual = 1.47645e-05, No Iterations 5
GAMG:  Solving for p, Initial residual = 0.000354816, Final residual = 3.27996e-05, No Iterations 2
time step continuity errors : sum local = 7.9345e-05, global = 3.13943e-06, cumulative = 0.0141825
smoothSolver:  Solving for omega, Initial residual = 3.29944e-06, Final residual = 2.56121e-07, No Iterations 2
smoothSolver:  Solving for k, Initial residual = 8.31692e-05, Final residual = 5.37703e-06, No Iterations 4
ExecutionTime = 1.1 s  ClockTime = 1 s

scalarTransport execute: age
smoothSolver:  Solving for age, Initial residual = 0.00172562, Final residual = 0.000164401, No Iterations 12

Time = 85

smoothSolver:  Solving for Ux, Initial residual = 0.00522081, Final residual = 1.15517e-05, No Iterations 1
smoothSolver:  Solving for Uy, Initial residual = 0.0153831, Final residual = 9.50036e-05, No Iterations 1
GAMG:  Solving for p, Initial residual = 0.000243013, Final residual = 1.82929e-05, No Iterations 2
time step continuity errors : sum local = 4.42479e-05, global = 3.18236e-06, cumulative = 0.0141856
smoothSolver:  Solving for omega, Initial residual = 4.0427e-06, Final residual = 1.99004e-07, No Iterations 2
smoothSolver:  Solving for k, Initial residual = 7.22362e-05, Final residual = 4.85508e-06, No Iterations 4
ExecutionTime = 1.11 s  ClockTime = 1 s

scalarTransport execute: age
smoothSolver:  Solving for age, Initial residual = 0.00167273, Final residual = 0.000164267, No Iterations 12

Time = 86

smoothSolver:  Solving for Ux, Initial residual = 0.00025761, Final residual = 1.75624e-05, No Iterations 5
smoothSolver:  Solving for Uy, Initial residual = 0.000184753, Final residual = 1.21018e-05, No Iterations 5
GAMG:  Solving for p, Initial residual = 0.000307912, Final residual = 2.64662e-05, No Iterations 2
time step continuity errors : sum local = 6.40123e-05, global = 4.26225e-06, cumulative = 0.0141899
smoothSolver:  Solving for omega, Initial residual = 6.40009e-06, Final residual = 2.42288e-07, No Iterations 2
smoothSolver:  Solving for k, Initial residual = 6.7126e-05, Final residual = 4.38018e-06, No Iterations 4
ExecutionTime = 1.12 s  ClockTime = 1 s

scalarTransport execute: age
smoothSolver:  Solving for age, Initial residual = 0.00163485, Final residual = 0.00014176, No Iterations 13

Time = 87

smoothSolver:  Solving for Ux, Initial residual = 0.000262384, Final residual = 2.569e-05, No Iterations 4
smoothSolver:  Solving for Uy, Initial residual = 0.000170497, Final residual = 1.06741e-05, No Iterations 5
GAMG:  Solving for p, Initial residual = 0.000286729, Final residual = 2.42203e-05, No Iterations 2
time step continuity errors : sum local = 5.85724e-05, global = 5.4361e-06, cumulative = 0.0141953
smoothSolver:  Solving for omega, Initial residual = 7.70274e-06, Final residual = 7.02255e-07, No Iterations 1
smoothSolver:  Solving for k, Initial residual = 6.32311e-05, Final residual = 3.95973e-06, No Iterations 4
ExecutionTime = 1.14 s  ClockTime = 1 s

scalarTransport execute: age
smoothSolver:  Solving for age, Initial residual = 0.00158842, Final residual = 0.000140798, No Iterations 13

Time = 88

smoothSolver:  Solving for Ux, Initial residual = 0.000215614, Final residual = 1.4642e-05, No Iterations 5
smoothSolver:  Solving for Uy, Initial residual = 0.000170264, Final residual = 1.50774e-05, No Iterations 4
GAMG:  Solving for p, Initial residual = 0.000272323, Final residual = 2.25723e-05, No Iterations 2
time step continuity errors : sum local = 5.4579e-05, global = 5.74716e-06, cumulative = 0.0142011
smoothSolver:  Solving for omega, Initial residual = 4.23095e-06, Final residual = 2.26132e-07, No Iterations 2
smoothSolver:  Solving for k, Initial residual = 5.88157e-05, Final residual = 3.57339e-06, No Iterations 4
ExecutionTime = 1.15 s  ClockTime = 1 s

scalarTransport execute: age
smoothSolver:  Solving for age, Initial residual = 0.00153841, Final residual = 0.000139236, No Iterations 13

Time = 89

smoothSolver:  Solving for Ux, Initial residual = 0.000198918, Final residual = 1.30766e-05, No Iterations 5
smoothSolver:  Solving for Uy, Initial residual = 0.000139322, Final residual = 8.66943e-06, No Iterations 5
GAMG:  Solving for p, Initial residual = 0.000248539, Final residual = 1.75059e-05, No Iterations 2
time step continuity errors : sum local = 4.23214e-05, global = 5.32662e-06, cumulative = 0.0142064
smoothSolver:  Solving for omega, Initial residual = 3.83253e-06, Final residual = 2.03673e-07, No Iterations 2
smoothSolver:  Solving for k, Initial residual = 5.3684e-05, Final residual = 3.22602e-06, No Iterations 4
ExecutionTime = 1.16 s  ClockTime = 1 s

scalarTransport execute: age
smoothSolver:  Solving for age, Initial residual = 0.00151342, Final residual = 0.000139214, No Iterations 13

Time = 90

smoothSolver:  Solving for Ux, Initial residual = 0.00017679, Final residual = 1.21155e-05, No Iterations 5
smoothSolver:  Solving for Uy, Initial residual = 0.000122682, Final residual = 7.87467e-06, No Iterations 5
GAMG:  Solving for p, Initial residual = 0.000220784, Final residual = 1.67652e-05, No Iterations 2
time step continuity errors : sum local = 4.05229e-05, global = 4.71539e-06, cumulative = 0.0142111
smoothSolver:  Solving for omega, Initial residual = 3.67735e-06, Final residual = 1.91975e-07, No Iterations 2
smoothSolver:  Solving for k, Initial residual = 4.85007e-05, Final residual = 2.91345e-06, No Iterations 4
ExecutionTime = 1.17 s  ClockTime = 1 s

scalarTransport execute: age
smoothSolver:  Solving for age, Initial residual = 0.00146748, Final residual = 0.000139208, No Iterations 13

Time = 91

smoothSolver:  Solving for Ux, Initial residual = 0.000172134, Final residual = 1.0955e-05, No Iterations 5
smoothSolver:  Solving for Uy, Initial residual = 0.00014061, Final residual = 1.18381e-05, No Iterations 4
GAMG:  Solving for p, Initial residual = 0.000225061, Final residual = 1.85498e-05, No Iterations 2
time step continuity errors : sum local = 4.48293e-05, global = 4.25401e-06, cumulative = 0.0142154
smoothSolver:  Solving for omega, Initial residual = 4.54156e-06, Final residual = 1.90786e-07, No Iterations 2
smoothSolver:  Solving for k, Initial residual = 4.39413e-05, Final residual = 2.63256e-06, No Iterations 4
ExecutionTime = 1.2 s  ClockTime = 1 s

scalarTransport execute: age
smoothSolver:  Solving for age, Initial residual = 0.00144668, Final residual = 0.000139515, No Iterations 13

Time = 92

smoothSolver:  Solving for Ux, Initial residual = 0.00015577, Final residual = 1.00081e-05, No Iterations 5
smoothSolver:  Solving for Uy, Initial residual = 0.00012525, Final residual = 1.13043e-05, No Iterations 4
GAMG:  Solving for p, Initial residual = 0.000205595, Final residual = 1.73111e-05, No Iterations 2
time step continuity errors : sum local = 4.18304e-05, global = 3.96354e-06, cumulative = 0.0142193
smoothSolver:  Solving for omega, Initial residual = 4.69904e-06, Final residual = 1.81238e-07, No Iterations 2
smoothSolver:  Solving for k, Initial residual = 3.94038e-05, Final residual = 2.38053e-06, No Iterations 4
ExecutionTime = 1.21 s  ClockTime = 1 s

scalarTransport execute: age
smoothSolver:  Solving for age, Initial residual = 0.00143337, Final residual = 0.000139877, No Iterations 13

Time = 93

smoothSolver:  Solving for Ux, Initial residual = 0.000165044, Final residual = 1.44363e-05, No Iterations 4
smoothSolver:  Solving for Uy, Initial residual = 0.0001275, Final residual = 1.05704e-05, No Iterations 4
GAMG:  Solving for p, Initial residual = 0.000198318, Final residual = 1.56669e-05, No Iterations 2
time step continuity errors : sum local = 3.78526e-05, global = 3.63622e-06, cumulative = 0.014223
smoothSolver:  Solving for omega, Initial residual = 5.12944e-06, Final residual = 1.87421e-07, No Iterations 2
smoothSolver:  Solving for k, Initial residual = 3.53499e-05, Final residual = 2.15417e-06, No Iterations 4
ExecutionTime = 1.22 s  ClockTime = 1 s

scalarTransport execute: age
smoothSolver:  Solving for age, Initial residual = 0.00143069, Final residual = 0.000140685, No Iterations 13

Time = 94

smoothSolver:  Solving for Ux, Initial residual = 0.000502512, Final residual = 4.44486e-05, No Iterations 1
smoothSolver:  Solving for Uy, Initial residual = 0.00281865, Final residual = 4.58628e-05, No Iterations 1
GAMG:  Solving for p, Initial residual = 0.00014356, Final residual = 8.84302e-06, No Iterations 2
time step continuity errors : sum local = 2.13637e-05, global = 2.68259e-06, cumulative = 0.0142257
smoothSolver:  Solving for omega, Initial residual = 5.22443e-06, Final residual = 1.62844e-07, No Iterations 2
smoothSolver:  Solving for k, Initial residual = 3.09695e-05, Final residual = 1.95109e-06, No Iterations 4
ExecutionTime = 1.23 s  ClockTime = 1 s

scalarTransport execute: age
smoothSolver:  Solving for age, Initial residual = 0.0014112, Final residual = 0.000139394, No Iterations 13

Time = 95

smoothSolver:  Solving for Ux, Initial residual = 0.000170797, Final residual = 1.23815e-05, No Iterations 4
smoothSolver:  Solving for Uy, Initial residual = 0.000421099, Final residual = 2.54261e-05, No Iterations 2
GAMG:  Solving for p, Initial residual = 0.000152, Final residual = 1.39892e-05, No Iterations 2
[...]

smoothSolver:  Solving for Ux, Initial residual = 8.65876e-06, Final residual = 7.68683e-07, No Iterations 2
smoothSolver:  Solving for Uy, Initial residual = 1.60135e-05, Final residual = 7.99662e-07, No Iterations 2
GAMG:  Solving for p, Initial residual = 2.07685e-05, Final residual = 1.6715e-06, No Iterations 2
time step continuity errors : sum local = 4.03549e-06, global = 2.01088e-08, cumulative = 0.0142572
smoothSolver:  Solving for omega, Initial residual = 1.24349e-06, Final residual = 1.17307e-07, No Iterations 1
smoothSolver:  Solving for k, Initial residual = 3.86338e-07, Final residual = 7.44548e-09, No Iterations 1
ExecutionTime = 21.95 s  ClockTime = 22 s

scalarTransport execute: age
smoothSolver:  Solving for age, Initial residual = 1.68356e-05, Final residual = 1.61407e-06, No Iterations 12

Time = 1978

smoothSolver:  Solving for Ux, Initial residual = 3.47875e-05, Final residual = 2.28272e-06, No Iterations 1
smoothSolver:  Solving for Uy, Initial residual = 1.577e-05, Final residual = 7.8873e-07, No Iterations 2
GAMG:  Solving for p, Initial residual = 2.61754e-05, Final residual = 1.21097e-06, No Iterations 3
time step continuity errors : sum local = 2.92364e-06, global = -9.10799e-10, cumulative = 0.0142572
smoothSolver:  Solving for omega, Initial residual = 1.68581e-06, Final residual = 1.47006e-07, No Iterations 1
smoothSolver:  Solving for k, Initial residual = 5.8315e-07, Final residual = 9.26005e-09, No Iterations 1
ExecutionTime = 21.96 s  ClockTime = 22 s

scalarTransport execute: age
smoothSolver:  Solving for age, Initial residual = 1.73155e-05, Final residual = 1.62993e-06, No Iterations 12

Time = 1979

smoothSolver:  Solving for Ux, Initial residual = 2.89427e-05, Final residual = 2.62119e-06, No Iterations 1
smoothSolver:  Solving for Uy, Initial residual = 0.000174633, Final residual = 2.62924e-06, No Iterations 1
GAMG:  Solving for p, Initial residual = 3.54247e-05, Final residual = 3.34203e-06, No Iterations 2
time step continuity errors : sum local = 8.06866e-06, global = -1.3399e-08, cumulative = 0.0142572
smoothSolver:  Solving for omega, Initial residual = 1.94696e-06, Final residual = 1.49424e-07, No Iterations 1
smoothSolver:  Solving for k, Initial residual = 1.4023e-06, Final residual = 1.00639e-08, No Iterations 1
ExecutionTime = 21.97 s  ClockTime = 22 s

scalarTransport execute: age
smoothSolver:  Solving for age, Initial residual = 2.28227e-05, Final residual = 2.07278e-06, No Iterations 10

Time = 1980

smoothSolver:  Solving for Ux, Initial residual = 3.69389e-05, Final residual = 2.80928e-06, No Iterations 1
smoothSolver:  Solving for Uy, Initial residual = 0.000114394, Final residual = 2.65111e-06, No Iterations 1
GAMG:  Solving for p, Initial residual = 3.35071e-05, Final residual = 2.86345e-06, No Iterations 2
time step continuity errors : sum local = 6.91329e-06, global = -1.42685e-08, cumulative = 0.0142572
smoothSolver:  Solving for omega, Initial residual = 2.1473e-06, Final residual = 1.71011e-07, No Iterations 1
smoothSolver:  Solving for k, Initial residual = 2.01196e-06, Final residual = 1.00382e-08, No Iterations 1
ExecutionTime = 21.98 s  ClockTime = 22 s

scalarTransport execute: age
smoothSolver:  Solving for age, Initial residual = 2.65757e-05, Final residual = 2.33905e-06, No Iterations 9

Time = 1981

smoothSolver:  Solving for Ux, Initial residual = 2.1211e-05, Final residual = 1.19689e-06, No Iterations 2
smoothSolver:  Solving for Uy, Initial residual = 4.15637e-05, Final residual = 2.51154e-06, No Iterations 1
GAMG:  Solving for p, Initial residual = 3.71365e-05, Final residual = 3.06343e-06, No Iterations 2
time step continuity errors : sum local = 7.39609e-06, global = -1.32074e-08, cumulative = 0.0142572
smoothSolver:  Solving for omega, Initial residual = 2.27401e-06, Final residual = 1.90715e-07, No Iterations 1
smoothSolver:  Solving for k, Initial residual = 1.3273e-06, Final residual = 9.67658e-09, No Iterations 1
ExecutionTime = 21.99 s  ClockTime = 22 s

scalarTransport execute: age
smoothSolver:  Solving for age, Initial residual = 2.93669e-05, Final residual = 2.60969e-06, No Iterations 8

Time = 1982

smoothSolver:  Solving for Ux, Initial residual = 6.89588e-05, Final residual = 3.04599e-06, No Iterations 1
smoothSolver:  Solving for Uy, Initial residual = 2.48688e-05, Final residual = 2.20071e-06, No Iterations 1
GAMG:  Solving for p, Initial residual = 3.61246e-05, Final residual = 1.31564e-06, No Iterations 3
time step continuity errors : sum local = 3.1764e-06, global = 4.04872e-09, cumulative = 0.0142572
smoothSolver:  Solving for omega, Initial residual = 2.41083e-06, Final residual = 2.31751e-07, No Iterations 1
smoothSolver:  Solving for k, Initial residual = 1.05402e-06, Final residual = 1.19571e-08, No Iterations 1
ExecutionTime = 22 s  ClockTime = 22 s

scalarTransport execute: age
smoothSolver:  Solving for age, Initial residual = 2.55628e-05, Final residual = 2.54831e-06, No Iterations 9

Time = 1983

smoothSolver:  Solving for Ux, Initial residual = 2.44011e-05, Final residual = 1.10639e-06, No Iterations 2
smoothSolver:  Solving for Uy, Initial residual = 4.21356e-05, Final residual = 3.50689e-06, No Iterations 1
GAMG:  Solving for p, Initial residual = 4.72648e-05, Final residual = 3.2707e-06, No Iterations 2
time step continuity errors : sum local = 7.89656e-06, global = 1.49428e-08, cumulative = 0.0142572
smoothSolver:  Solving for omega, Initial residual = 2.24885e-06, Final residual = 1.94657e-07, No Iterations 1
smoothSolver:  Solving for k, Initial residual = 1.21678e-06, Final residual = 1.31695e-08, No Iterations 1
ExecutionTime = 22.01 s  ClockTime = 22 s

scalarTransport execute: age
smoothSolver:  Solving for age, Initial residual = 2.65873e-05, Final residual = 2.38164e-06, No Iterations 10

Time = 1984

smoothSolver:  Solving for Ux, Initial residual = 1.71817e-05, Final residual = 1.30688e-06, No Iterations 2
smoothSolver:  Solving for Uy, Initial residual = 2.12627e-05, Final residual = 1.29874e-06, No Iterations 2
GAMG:  Solving for p, Initial residual = 3.62049e-05, Final residual = 2.71738e-06, No Iterations 2
time step continuity errors : sum local = 6.56065e-06, global = 3.47365e-08, cumulative = 0.0142572
smoothSolver:  Solving for omega, Initial residual = 1.72667e-06, Final residual = 1.33176e-07, No Iterations 1
smoothSolver:  Solving for k, Initial residual = 7.72168e-07, Final residual = 1.0836e-08, No Iterations 1
ExecutionTime = 22.02 s  ClockTime = 22 s

scalarTransport execute: age
smoothSolver:  Solving for age, Initial residual = 2.83641e-05, Final residual = 2.48794e-06, No Iterations 10

Time = 1985

smoothSolver:  Solving for Ux, Initial residual = 1.23006e-05, Final residual = 9.50183e-07, No Iterations 2
smoothSolver:  Solving for Uy, Initial residual = 1.48093e-05, Final residual = 9.75372e-07, No Iterations 2
GAMG:  Solving for p, Initial residual = 2.76599e-05, Final residual = 2.08076e-06, No Iterations 2
time step continuity errors : sum local = 5.02361e-06, global = 4.62903e-08, cumulative = 0.0142573
smoothSolver:  Solving for omega, Initial residual = 1.397e-06, Final residual = 1.10839e-07, No Iterations 1
smoothSolver:  Solving for k, Initial residual = 4.83604e-07, Final residual = 8.74627e-09, No Iterations 1
ExecutionTime = 22.04 s  ClockTime = 22 s

scalarTransport execute: age
smoothSolver:  Solving for age, Initial residual = 2.48873e-05, Final residual = 2.46578e-06, No Iterations 10

Time = 1986

smoothSolver:  Solving for Ux, Initial residual = 7.81852e-05, Final residual = 3.03537e-06, No Iterations 1
smoothSolver:  Solving for Uy, Initial residual = 0.000280195, Final residual = 3.10735e-06, No Iterations 1
GAMG:  Solving for p, Initial residual = 4.79924e-05, Final residual = 4.70114e-06, No Iterations 2
time step continuity errors : sum local = 1.135e-05, global = 5.37079e-08, cumulative = 0.0142573
smoothSolver:  Solving for omega, Initial residual = 2.00368e-06, Final residual = 1.73343e-07, No Iterations 1
smoothSolver:  Solving for k, Initial residual = 2.0144e-06, Final residual = 2.00319e-08, No Iterations 1
ExecutionTime = 22.05 s  ClockTime = 22 s

scalarTransport execute: age
smoothSolver:  Solving for age, Initial residual = 2.6887e-05, Final residual = 2.41383e-06, No Iterations 11

Time = 1987

smoothSolver:  Solving for Ux, Initial residual = 2.45119e-05, Final residual = 1.44564e-06, No Iterations 2
smoothSolver:  Solving for Uy, Initial residual = 2.15419e-05, Final residual = 1.40345e-06, No Iterations 2
GAMG:  Solving for p, Initial residual = 4.53092e-05, Final residual = 3.46277e-06, No Iterations 2
time step continuity errors : sum local = 8.3604e-06, global = 5.28292e-08, cumulative = 0.0142574
smoothSolver:  Solving for omega, Initial residual = 3.10804e-06, Final residual = 2.96558e-07, No Iterations 1
smoothSolver:  Solving for k, Initial residual = 1.60297e-06, Final residual = 1.5876e-08, No Iterations 1
ExecutionTime = 22.06 s  ClockTime = 22 s

scalarTransport execute: age
smoothSolver:  Solving for age, Initial residual = 2.84233e-05, Final residual = 2.81812e-06, No Iterations 10

Time = 1988

smoothSolver:  Solving for Ux, Initial residual = 4.56321e-05, Final residual = 3.06362e-06, No Iterations 1
smoothSolver:  Solving for Uy, Initial residual = 1.66028e-05, Final residual = 7.75728e-07, No Iterations 2
GAMG:  Solving for p, Initial residual = 3.24134e-05, Final residual = 1.37377e-06, No Iterations 3
time step continuity errors : sum local = 3.31677e-06, global = 5.23283e-08, cumulative = 0.0142574
smoothSolver:  Solving for omega, Initial residual = 2.17575e-06, Final residual = 1.8366e-07, No Iterations 1
smoothSolver:  Solving for k, Initial residual = 7.73186e-07, Final residual = 1.29097e-08, No Iterations 1
ExecutionTime = 22.07 s  ClockTime = 22 s

scalarTransport execute: age
smoothSolver:  Solving for age, Initial residual = 2.55664e-05, Final residual = 2.41451e-06, No Iterations 11

Time = 1989

smoothSolver:  Solving for Ux, Initial residual = 1.93927e-05, Final residual = 1.35302e-06, No Iterations 2
smoothSolver:  Solving for Uy, Initial residual = 5.72015e-05, Final residual = 2.93911e-06, No Iterations 1
GAMG:  Solving for p, Initial residual = 4.5356e-05, Final residual = 1.59813e-06, No Iterations 3
time step continuity errors : sum local = 3.85846e-06, global = 3.3982e-08, cumulative = 0.0142575
smoothSolver:  Solving for omega, Initial residual = 2.19639e-06, Final residual = 1.66649e-07, No Iterations 1
smoothSolver:  Solving for k, Initial residual = 1.0112e-06, Final residual = 1.17939e-08, No Iterations 1
ExecutionTime = 22.08 s  ClockTime = 22 s

scalarTransport execute: age
smoothSolver:  Solving for age, Initial residual = 3.00385e-05, Final residual = 2.97741e-06, No Iterations 10

Time = 1990

smoothSolver:  Solving for Ux, Initial residual = 1.41237e-05, Final residual = 1.08063e-06, No Iterations 2
smoothSolver:  Solving for Uy, Initial residual = 1.7702e-05, Final residual = 1.07154e-06, No Iterations 2
GAMG:  Solving for p, Initial residual = 3.65448e-05, Final residual = 2.55151e-06, No Iterations 2
time step continuity errors : sum local = 6.16021e-06, global = 2.16697e-08, cumulative = 0.0142575
smoothSolver:  Solving for omega, Initial residual = 1.14944e-06, Final residual = 7.42492e-08, No Iterations 1
smoothSolver:  Solving for k, Initial residual = 6.99949e-07, Final residual = 9.56044e-09, No Iterations 1
ExecutionTime = 22.09 s  ClockTime = 22 s

scalarTransport execute: age
smoothSolver:  Solving for age, Initial residual = 2.97877e-05, Final residual = 2.60548e-06, No Iterations 10

Time = 1991

smoothSolver:  Solving for Ux, Initial residual = 1.41645e-05, Final residual = 9.15032e-07, No Iterations 2
smoothSolver:  Solving for Uy, Initial residual = 1.26766e-05, Final residual = 7.38141e-07, No Iterations 2
GAMG:  Solving for p, Initial residual = 2.54646e-05, Final residual = 2.25363e-06, No Iterations 2
time step continuity errors : sum local = 5.44097e-06, global = 1.6874e-08, cumulative = 0.0142575
smoothSolver:  Solving for omega, Initial residual = 1.0235e-06, Final residual = 8.49386e-08, No Iterations 1
smoothSolver:  Solving for k, Initial residual = 3.82885e-07, Final residual = 7.98821e-09, No Iterations 1
ExecutionTime = 22.1 s  ClockTime = 22 s

scalarTransport execute: age
smoothSolver:  Solving for age, Initial residual = 2.39951e-05, Final residual = 2.20454e-06, No Iterations 11

Time = 1992

smoothSolver:  Solving for Ux, Initial residual = 2.8201e-05, Final residual = 2.32659e-06, No Iterations 1
smoothSolver:  Solving for Uy, Initial residual = 2.5694e-05, Final residual = 2.50069e-06, No Iterations 1
GAMG:  Solving for p, Initial residual = 3.90403e-05, Final residual = 1.68152e-06, No Iterations 3
time step continuity errors : sum local = 4.05973e-06, global = 2.29392e-08, cumulative = 0.0142575
smoothSolver:  Solving for omega, Initial residual = 1.4849e-06, Final residual = 1.27415e-07, No Iterations 1
smoothSolver:  Solving for k, Initial residual = 6.85227e-07, Final residual = 1.02506e-08, No Iterations 1
ExecutionTime = 22.11 s  ClockTime = 22 s

scalarTransport execute: age
smoothSolver:  Solving for age, Initial residual = 2.19099e-05, Final residual = 1.9737e-06, No Iterations 12

Time = 1993

smoothSolver:  Solving for Ux, Initial residual = 2.31863e-05, Final residual = 1.52916e-06, No Iterations 2
smoothSolver:  Solving for Uy, Initial residual = 4.78553e-05, Final residual = 3.80767e-06, No Iterations 1
GAMG:  Solving for p, Initial residual = 4.51596e-05, Final residual = 4.19569e-06, No Iterations 2
time step continuity errors : sum local = 1.01298e-05, global = 2.68591e-08, cumulative = 0.0142576
smoothSolver:  Solving for omega, Initial residual = 2.135e-06, Final residual = 1.80782e-07, No Iterations 1
smoothSolver:  Solving for k, Initial residual = 8.36097e-07, Final residual = 1.08042e-08, No Iterations 1
ExecutionTime = 22.12 s  ClockTime = 22 s

scalarTransport execute: age
smoothSolver:  Solving for age, Initial residual = 2.17927e-05, Final residual = 1.90907e-06, No Iterations 12

Time = 1994

smoothSolver:  Solving for Ux, Initial residual = 1.508e-05, Final residual = 1.01195e-06, No Iterations 2
smoothSolver:  Solving for Uy, Initial residual = 2.42977e-05, Final residual = 1.04857e-06, No Iterations 2
GAMG:  Solving for p, Initial residual = 3.14364e-05, Final residual = 2.29225e-06, No Iterations 2
time step continuity errors : sum local = 5.53428e-06, global = 2.64614e-08, cumulative = 0.0142576
smoothSolver:  Solving for omega, Initial residual = 1.90011e-06, Final residual = 1.48687e-07, No Iterations 1
smoothSolver:  Solving for k, Initial residual = 6.00815e-07, Final residual = 9.27622e-09, No Iterations 1
ExecutionTime = 22.13 s  ClockTime = 22 s

scalarTransport execute: age
smoothSolver:  Solving for age, Initial residual = 2.07495e-05, Final residual = 2.06902e-06, No Iterations 11

Time = 1995

smoothSolver:  Solving for Ux, Initial residual = 1.78152e-05, Final residual = 1.01042e-06, No Iterations 2
smoothSolver:  Solving for Uy, Initial residual = 1.5181e-05, Final residual = 9.4072e-07, No Iterations 2
GAMG:  Solving for p, Initial residual = 3.15003e-05, Final residual = 2.51135e-06, No Iterations 2
time step continuity errors : sum local = 6.06322e-06, global = 1.69992e-08, cumulative = 0.0142576
smoothSolver:  Solving for omega, Initial residual = 1.72778e-06, Final residual = 1.42604e-07, No Iterations 1
smoothSolver:  Solving for k, Initial residual = 5.23455e-07, Final residual = 8.61414e-09, No Iterations 1
ExecutionTime = 22.15 s  ClockTime = 22 s

scalarTransport execute: age
smoothSolver:  Solving for age, Initial residual = 1.81683e-05, Final residual = 1.74651e-06, No Iterations 12

Time = 1996

smoothSolver:  Solving for Ux, Initial residual = 1.11025e-05, Final residual = 1.0116e-06, No Iterations 2
smoothSolver:  Solving for Uy, Initial residual = 1.09121e-05, Final residual = 9.0098e-07, No Iterations 2
GAMG:  Solving for p, Initial residual = 2.72303e-05, Final residual = 2.65439e-06, No Iterations 2
time step continuity errors : sum local = 6.40857e-06, global = -1.11135e-08, cumulative = 0.0142576
smoothSolver:  Solving for omega, Initial residual = 1.59674e-06, Final residual = 1.40983e-07, No Iterations 1
smoothSolver:  Solving for k, Initial residual = 4.52426e-07, Final residual = 8.25184e-09, No Iterations 1
ExecutionTime = 22.16 s  ClockTime = 22 s

scalarTransport execute: age
smoothSolver:  Solving for age, Initial residual = 1.8122e-05, Final residual = 1.80324e-06, No Iterations 12

Time = 1997

smoothSolver:  Solving for Ux, Initial residual = 9.04427e-06, Final residual = 8.15635e-07, No Iterations 2
smoothSolver:  Solving for Uy, Initial residual = 2.19404e-05, Final residual = 1.12506e-06, No Iterations 2
GAMG:  Solving for p, Initial residual = 2.35232e-05, Final residual = 1.89981e-06, No Iterations 2
time step continuity errors : sum local = 4.58673e-06, global = -3.93076e-08, cumulative = 0.0142576
smoothSolver:  Solving for omega, Initial residual = 1.10531e-06, Final residual = 7.9637e-08, No Iterations 1
smoothSolver:  Solving for k, Initial residual = 4.47333e-07, Final residual = 8.71903e-09, No Iterations 1
ExecutionTime = 22.17 s  ClockTime = 22 s

scalarTransport execute: age
smoothSolver:  Solving for age, Initial residual = 1.71607e-05, Final residual = 1.61186e-06, No Iterations 12

Time = 1998

smoothSolver:  Solving for Ux, Initial residual = 1.08579e-05, Final residual = 8.02398e-07, No Iterations 2
smoothSolver:  Solving for Uy, Initial residual = 1.76638e-05, Final residual = 1.03299e-06, No Iterations 2
GAMG:  Solving for p, Initial residual = 2.75779e-05, Final residual = 2.46965e-06, No Iterations 2
time step continuity errors : sum local = 5.96254e-06, global = -5.12885e-08, cumulative = 0.0142575
smoothSolver:  Solving for omega, Initial residual = 1.05637e-06, Final residual = 8.35373e-08, No Iterations 1
smoothSolver:  Solving for k, Initial residual = 5.14498e-07, Final residual = 8.76736e-09, No Iterations 1
ExecutionTime = 22.18 s  ClockTime = 22 s

scalarTransport execute: age
smoothSolver:  Solving for age, Initial residual = 1.80636e-05, Final residual = 1.7933e-06, No Iterations 11

Time = 1999

smoothSolver:  Solving for Ux, Initial residual = 1.21375e-05, Final residual = 8.17136e-07, No Iterations 2
smoothSolver:  Solving for Uy, Initial residual = 1.9278e-05, Final residual = 7.97731e-07, No Iterations 2
GAMG:  Solving for p, Initial residual = 2.49096e-05, Final residual = 1.94365e-06, No Iterations 2
time step continuity errors : sum local = 4.69259e-06, global = -5.46874e-08, cumulative = 0.0142574
smoothSolver:  Solving for omega, Initial residual = 1.12411e-06, Final residual = 8.39362e-08, No Iterations 1
smoothSolver:  Solving for k, Initial residual = 4.45268e-07, Final residual = 7.55091e-09, No Iterations 1
ExecutionTime = 22.19 s  ClockTime = 22 s

scalarTransport execute: age
smoothSolver:  Solving for age, Initial residual = 1.91973e-05, Final residual = 1.69079e-06, No Iterations 11

Time = 2000

smoothSolver:  Solving for Ux, Initial residual = 0.0024577, Final residual = 1.39608e-06, No Iterations 1
smoothSolver:  Solving for Uy, Initial residual = 0.000485722, Final residual = 2.48282e-06, No Iterations 1
GAMG:  Solving for p, Initial residual = 4.48789e-05, Final residual = 1.83379e-06, No Iterations 3
time step continuity errors : sum local = 4.42738e-06, global = -4.66041e-08, cumulative = 0.0142574
smoothSolver:  Solving for omega, Initial residual = 1.58584e-06, Final residual = 1.26098e-07, No Iterations 1
smoothSolver:  Solving for k, Initial residual = 1.30222e-06, Final residual = 1.38906e-08, No Iterations 1
ExecutionTime = 22.23 s  ClockTime = 22 s

scalarTransport execute: age
smoothSolver:  Solving for age, Initial residual = 1.90299e-05, Final residual = 1.63355e-06, No Iterations 12

End

