/*---------------------------------------------------------------------------*\
| =========                 |                                                 |
| \\      /  F ield         | OpenFOAM: The Open Source CFD Toolbox           |
|  \\    /   O peration     | Version:  v2012                                 |
|   \\  /    A nd           | Website:  www.openfoam.com                      |
|    \\/     M anipulation  |                                                 |
\*---------------------------------------------------------------------------*/
Build  : _7bdb509494-20201222 OPENFOAM=2012
Arch   : "LSB;label=32;scalar=64"
Exec   : simpleFoam
Date   : Feb 22 2023
Time   : 19:42:11
Host   : johnsDesktop
PID    : 8992
I/O    : uncollated
Case   : /home/john/of_runs/cases/0_29_6-09400_8
nProcs : 1
trapFpe: Floating point exception trapping enabled (FOAM_SIGFPE).
fileModificationChecking : Monitoring run-time modified files using timeStampMaster (fileModificationSkew 5, maxFileModificationPolls 20)
allowSystemOperations : Allowing user-supplied system call operations

// * * * * * * * * * * * * * * * * * * * * * * * * * * * * * * * * * * * * * //
Create time

Create mesh for time = 0


SIMPLE: convergence criteria
    field p	 tolerance 1e-06
    field U	 tolerance 1e-06
    field "(k|epsilon|omega|f|v2|age)"	 tolerance 1e-05

Reading field p

Reading field U

Reading/calculating face flux field phi

Selecting incompressible transport model Newtonian
Selecting turbulence model type RAS
Selecting RAS turbulence model kOmegaSST
Selecting patchDistMethod meshWave
RAS
{
    RASModel        kOmegaSST;
    turbulence      on;
    printCoeffs     on;
    alphaK1         0.85;
    alphaK2         1;
    alphaOmega1     0.5;
    alphaOmega2     0.856;
    gamma1          0.555556;
    gamma2          0.44;
    beta1           0.075;
    beta2           0.0828;
    betaStar        0.09;
    a1              0.31;
    b1              1;
    c1              10;
    F3              false;
    decayControl    false;
    kInf            0;
    omegaInf        0;
}

No MRF models present

No finite volume options present

Starting time loop

Selecting finite volume options type scalarSemiImplicitSource
    Source: unitySource
    - selecting all cells
    - selected 6084 cell(s) with volume 0.031855
Time = 1

smoothSolver:  Solving for Ux, Initial residual = 0, Final residual = 0, No Iterations 0
smoothSolver:  Solving for Uy, Initial residual = 1, Final residual = 0.0807202, No Iterations 2
GAMG:  Solving for p, Initial residual = 1, Final residual = 0.071055, No Iterations 7
time step continuity errors : sum local = 0.00446115, global = -0.000976672, cumulative = -0.000976672
smoothSolver:  Solving for omega, Initial residual = 0.277968, Final residual = 0.0122783, No Iterations 3
smoothSolver:  Solving for k, Initial residual = 1, Final residual = 0.0811468, No Iterations 3
ExecutionTime = 0.05 s  ClockTime = 1 s

scalarTransport execute: age
smoothSolver:  Solving for age, Initial residual = 1, Final residual = 0.0913117, No Iterations 4

Time = 2

smoothSolver:  Solving for Ux, Initial residual = 0.557824, Final residual = 0.0466863, No Iterations 6
smoothSolver:  Solving for Uy, Initial residual = 0.271364, Final residual = 0.0186157, No Iterations 6
GAMG:  Solving for p, Initial residual = 0.053026, Final residual = 0.00200008, No Iterations 4
time step continuity errors : sum local = 0.0198839, global = 0.00308833, cumulative = 0.00211166
smoothSolver:  Solving for omega, Initial residual = 0.249373, Final residual = 0.0244698, No Iterations 3
smoothSolver:  Solving for k, Initial residual = 0.61444, Final residual = 0.0571388, No Iterations 4
ExecutionTime = 0.06 s  ClockTime = 1 s

scalarTransport execute: age
smoothSolver:  Solving for age, Initial residual = 0.598291, Final residual = 0.0573854, No Iterations 4

Time = 3

smoothSolver:  Solving for Ux, Initial residual = 0.20829, Final residual = 0.0205163, No Iterations 5
smoothSolver:  Solving for Uy, Initial residual = 0.0931612, Final residual = 0.00800679, No Iterations 5
GAMG:  Solving for p, Initial residual = 0.0579124, Final residual = 0.00380627, No Iterations 3
time step continuity errors : sum local = 0.0168353, global = 0.00265652, cumulative = 0.00476817
smoothSolver:  Solving for omega, Initial residual = 0.233954, Final residual = 0.022304, No Iterations 4
smoothSolver:  Solving for k, Initial residual = 0.515085, Final residual = 0.0383024, No Iterations 5
ExecutionTime = 0.09 s  ClockTime = 1 s

scalarTransport execute: age
smoothSolver:  Solving for age, Initial residual = 0.403994, Final residual = 0.0355111, No Iterations 5

Time = 4

smoothSolver:  Solving for Ux, Initial residual = 0.10436, Final residual = 0.00901859, No Iterations 4
smoothSolver:  Solving for Uy, Initial residual = 0.0484007, Final residual = 0.00352154, No Iterations 5
GAMG:  Solving for p, Initial residual = 0.0778301, Final residual = 0.00357681, No Iterations 3
time step continuity errors : sum local = 0.0094187, global = 0.000626304, cumulative = 0.00539448
smoothSolver:  Solving for omega, Initial residual = 0.133988, Final residual = 0.00920215, No Iterations 5
smoothSolver:  Solving for k, Initial residual = 0.441647, Final residual = 0.0371935, No Iterations 5
ExecutionTime = 0.1 s  ClockTime = 1 s

scalarTransport execute: age
smoothSolver:  Solving for age, Initial residual = 0.242455, Final residual = 0.0205498, No Iterations 2

Time = 5

smoothSolver:  Solving for Ux, Initial residual = 0.0626091, Final residual = 0.00508307, No Iterations 5
smoothSolver:  Solving for Uy, Initial residual = 0.0317031, Final residual = 0.00228107, No Iterations 5
GAMG:  Solving for p, Initial residual = 0.0714531, Final residual = 0.00260197, No Iterations 2
time step continuity errors : sum local = 0.00642706, global = 0.000685143, cumulative = 0.00607962
smoothSolver:  Solving for omega, Initial residual = 0.0911166, Final residual = 0.00690945, No Iterations 5
smoothSolver:  Solving for k, Initial residual = 0.356416, Final residual = 0.0325056, No Iterations 5
ExecutionTime = 0.12 s  ClockTime = 1 s

scalarTransport execute: age
smoothSolver:  Solving for age, Initial residual = 0.201093, Final residual = 0.0176396, No Iterations 2

Time = 6

smoothSolver:  Solving for Ux, Initial residual = 0.0476518, Final residual = 0.00461699, No Iterations 5
smoothSolver:  Solving for Uy, Initial residual = 0.0261623, Final residual = 0.00202026, No Iterations 5
GAMG:  Solving for p, Initial residual = 0.0575373, Final residual = 0.0026215, No Iterations 2
time step continuity errors : sum local = 0.00647618, global = 0.000509755, cumulative = 0.00658937
smoothSolver:  Solving for omega, Initial residual = 0.0699107, Final residual = 0.00566312, No Iterations 5
smoothSolver:  Solving for k, Initial residual = 0.283591, Final residual = 0.0274772, No Iterations 5
ExecutionTime = 0.13 s  ClockTime = 1 s

scalarTransport execute: age
smoothSolver:  Solving for age, Initial residual = 0.173048, Final residual = 0.0155755, No Iterations 2

Time = 7

smoothSolver:  Solving for Ux, Initial residual = 0.041823, Final residual = 0.00415655, No Iterations 5
smoothSolver:  Solving for Uy, Initial residual = 0.0228744, Final residual = 0.00189506, No Iterations 5
GAMG:  Solving for p, Initial residual = 0.046735, Final residual = 0.00276037, No Iterations 2
time step continuity errors : sum local = 0.00697668, global = -7.25829e-06, cumulative = 0.00658212
smoothSolver:  Solving for omega, Initial residual = 0.0529703, Final residual = 0.00458148, No Iterations 5
smoothSolver:  Solving for k, Initial residual = 0.233835, Final residual = 0.015002, No Iterations 6
ExecutionTime = 0.15 s  ClockTime = 1 s

scalarTransport execute: age
smoothSolver:  Solving for age, Initial residual = 0.151419, Final residual = 0.0136701, No Iterations 2

Time = 8

smoothSolver:  Solving for Ux, Initial residual = 0.0372276, Final residual = 0.00369554, No Iterations 5
smoothSolver:  Solving for Uy, Initial residual = 0.0216973, Final residual = 0.00197285, No Iterations 5
GAMG:  Solving for p, Initial residual = 0.0391379, Final residual = 0.00288079, No Iterations 2
time step continuity errors : sum local = 0.00745257, global = -0.000393412, cumulative = 0.0061887
smoothSolver:  Solving for omega, Initial residual = 0.0420528, Final residual = 0.00376746, No Iterations 5
smoothSolver:  Solving for k, Initial residual = 0.198353, Final residual = 0.0132051, No Iterations 6
ExecutionTime = 0.17 s  ClockTime = 1 s

scalarTransport execute: age
smoothSolver:  Solving for age, Initial residual = 0.131526, Final residual = 0.0121087, No Iterations 2

Time = 9

smoothSolver:  Solving for Ux, Initial residual = 0.0351449, Final residual = 0.00231583, No Iterations 6
smoothSolver:  Solving for Uy, Initial residual = 0.0209802, Final residual = 0.00197879, No Iterations 5
GAMG:  Solving for p, Initial residual = 0.0334013, Final residual = 0.00215087, No Iterations 2
time step continuity errors : sum local = 0.00577242, global = -0.000538178, cumulative = 0.00565053
smoothSolver:  Solving for omega, Initial residual = 0.0342928, Final residual = 0.00315759, No Iterations 5
smoothSolver:  Solving for k, Initial residual = 0.171289, Final residual = 0.0117594, No Iterations 6
ExecutionTime = 0.17 s  ClockTime = 1 s

scalarTransport execute: age
smoothSolver:  Solving for age, Initial residual = 0.11455, Final residual = 0.011005, No Iterations 2

Time = 10

smoothSolver:  Solving for Ux, Initial residual = 0.0341839, Final residual = 0.00230587, No Iterations 6
smoothSolver:  Solving for Uy, Initial residual = 0.0197222, Final residual = 0.00187598, No Iterations 5
GAMG:  Solving for p, Initial residual = 0.0286976, Final residual = 0.0011072, No Iterations 2
time step continuity errors : sum local = 0.00306295, global = -0.000547274, cumulative = 0.00510325
smoothSolver:  Solving for omega, Initial residual = 0.0282673, Final residual = 0.00266943, No Iterations 5
smoothSolver:  Solving for k, Initial residual = 0.150265, Final residual = 0.0105745, No Iterations 6
ExecutionTime = 0.2 s  ClockTime = 1 s

scalarTransport execute: age
smoothSolver:  Solving for age, Initial residual = 0.0999167, Final residual = 0.00696935, No Iterations 3

Time = 11

smoothSolver:  Solving for Ux, Initial residual = 0.0325987, Final residual = 0.00224921, No Iterations 6
smoothSolver:  Solving for Uy, Initial residual = 0.0189238, Final residual = 0.00185881, No Iterations 5
GAMG:  Solving for p, Initial residual = 0.0257229, Final residual = 0.00092871, No Iterations 2
time step continuity errors : sum local = 0.00259166, global = -0.000474821, cumulative = 0.00462843
smoothSolver:  Solving for omega, Initial residual = 0.0236663, Final residual = 0.00227672, No Iterations 5
smoothSolver:  Solving for k, Initial residual = 0.133488, Final residual = 0.00957987, No Iterations 6
ExecutionTime = 0.21 s  ClockTime = 1 s

scalarTransport execute: age
smoothSolver:  Solving for age, Initial residual = 0.0864086, Final residual = 0.00841607, No Iterations 2

Time = 12

smoothSolver:  Solving for Ux, Initial residual = 0.0312218, Final residual = 0.00217703, No Iterations 6
smoothSolver:  Solving for Uy, Initial residual = 0.0184694, Final residual = 0.00122913, No Iterations 6
GAMG:  Solving for p, Initial residual = 0.0241178, Final residual = 0.00105639, No Iterations 2
time step continuity errors : sum local = 0.00295572, global = -0.000378623, cumulative = 0.00424981
smoothSolver:  Solving for omega, Initial residual = 0.0200674, Final residual = 0.0019582, No Iterations 5
smoothSolver:  Solving for k, Initial residual = 0.119813, Final residual = 0.0087352, No Iterations 6
ExecutionTime = 0.23 s  ClockTime = 1 s

scalarTransport execute: age
smoothSolver:  Solving for age, Initial residual = 0.0760717, Final residual = 0.0053257, No Iterations 3

Time = 13

smoothSolver:  Solving for Ux, Initial residual = 0.0302402, Final residual = 0.00212303, No Iterations 6
smoothSolver:  Solving for Uy, Initial residual = 0.0181987, Final residual = 0.00123159, No Iterations 6
GAMG:  Solving for p, Initial residual = 0.02278, Final residual = 0.00104502, No Iterations 2
time step continuity errors : sum local = 0.00292387, global = -0.0002664, cumulative = 0.00398341
smoothSolver:  Solving for omega, Initial residual = 0.0172334, Final residual = 0.00169971, No Iterations 5
smoothSolver:  Solving for k, Initial residual = 0.10847, Final residual = 0.00801136, No Iterations 6
ExecutionTime = 0.25 s  ClockTime = 1 s

scalarTransport execute: age
smoothSolver:  Solving for age, Initial residual = 0.0670289, Final residual = 0.00462005, No Iterations 3

Time = 14

smoothSolver:  Solving for Ux, Initial residual = 0.0292868, Final residual = 0.00206782, No Iterations 6
smoothSolver:  Solving for Uy, Initial residual = 0.0179636, Final residual = 0.00122798, No Iterations 6
GAMG:  Solving for p, Initial residual = 0.0218101, Final residual = 0.00100659, No Iterations 2
time step continuity errors : sum local = 0.00280767, global = -0.000140648, cumulative = 0.00384276
smoothSolver:  Solving for omega, Initial residual = 0.0149421, Final residual = 0.00148701, No Iterations 5
smoothSolver:  Solving for k, Initial residual = 0.0988994, Final residual = 0.00738346, No Iterations 6
ExecutionTime = 0.26 s  ClockTime = 1 s

scalarTransport execute: age
smoothSolver:  Solving for age, Initial residual = 0.0594848, Final residual = 0.00420117, No Iterations 3

Time = 15

smoothSolver:  Solving for Ux, Initial residual = 0.0283688, Final residual = 0.0020133, No Iterations 6
smoothSolver:  Solving for Uy, Initial residual = 0.0178233, Final residual = 0.00122448, No Iterations 6
GAMG:  Solving for p, Initial residual = 0.020968, Final residual = 0.000966426, No Iterations 2
time step continuity errors : sum local = 0.00268034, global = -1.7156e-05, cumulative = 0.0038256
smoothSolver:  Solving for omega, Initial residual = 0.0130922, Final residual = 0.000838811, No Iterations 6
smoothSolver:  Solving for k, Initial residual = 0.0905298, Final residual = 0.00682139, No Iterations 6
ExecutionTime = 0.27 s  ClockTime = 1 s

scalarTransport execute: age
smoothSolver:  Solving for age, Initial residual = 0.0532535, Final residual = 0.00399848, No Iterations 3

Time = 16

smoothSolver:  Solving for Ux, Initial residual = 0.0274602, Final residual = 0.00195754, No Iterations 6
smoothSolver:  Solving for Uy, Initial residual = 0.0176624, Final residual = 0.00121344, No Iterations 6
GAMG:  Solving for p, Initial residual = 0.0202729, Final residual = 0.000934902, No Iterations 2
time step continuity errors : sum local = 0.00257507, global = 8.12453e-05, cumulative = 0.00390685
smoothSolver:  Solving for omega, Initial residual = 0.0114762, Final residual = 0.000740127, No Iterations 6
smoothSolver:  Solving for k, Initial residual = 0.0832339, Final residual = 0.00632314, No Iterations 6
ExecutionTime = 0.29 s  ClockTime = 1 s

scalarTransport execute: age
smoothSolver:  Solving for age, Initial residual = 0.0479907, Final residual = 0.0039065, No Iterations 3

Time = 17

smoothSolver:  Solving for Ux, Initial residual = 0.026645, Final residual = 0.00190892, No Iterations 6
smoothSolver:  Solving for Uy, Initial residual = 0.0174236, Final residual = 0.00119579, No Iterations 6
GAMG:  Solving for p, Initial residual = 0.0195655, Final residual = 0.000901064, No Iterations 2
time step continuity errors : sum local = 0.00246342, global = 0.000153811, cumulative = 0.00406066
smoothSolver:  Solving for omega, Initial residual = 0.0101483, Final residual = 0.000657734, No Iterations 6
smoothSolver:  Solving for k, Initial residual = 0.076943, Final residual = 0.00588463, No Iterations 6
ExecutionTime = 0.31 s  ClockTime = 1 s

scalarTransport execute: age
smoothSolver:  Solving for age, Initial residual = 0.0434561, Final residual = 0.00384471, No Iterations 3

Time = 18

smoothSolver:  Solving for Ux, Initial residual = 0.0259015, Final residual = 0.001866, No Iterations 6
smoothSolver:  Solving for Uy, Initial residual = 0.0171626, Final residual = 0.0011756, No Iterations 6
GAMG:  Solving for p, Initial residual = 0.0187536, Final residual = 0.000873032, No Iterations 2
time step continuity errors : sum local = 0.00237183, global = 0.000195826, cumulative = 0.00425649
smoothSolver:  Solving for omega, Initial residual = 0.00905154, Final residual = 0.000588465, No Iterations 6
smoothSolver:  Solving for k, Initial residual = 0.0714522, Final residual = 0.00549513, No Iterations 6
ExecutionTime = 0.32 s  ClockTime = 1 s

scalarTransport execute: age
smoothSolver:  Solving for age, Initial residual = 0.0396565, Final residual = 0.00387907, No Iterations 3

Time = 19

smoothSolver:  Solving for Ux, Initial residual = 0.0252345, Final residual = 0.00182787, No Iterations 6
smoothSolver:  Solving for Uy, Initial residual = 0.01683, Final residual = 0.0011542, No Iterations 6
GAMG:  Solving for p, Initial residual = 0.0179026, Final residual = 0.000855622, No Iterations 2
time step continuity errors : sum local = 0.00231196, global = 0.000217655, cumulative = 0.00447414
smoothSolver:  Solving for omega, Initial residual = 0.00813054, Final residual = 0.000529676, No Iterations 6
smoothSolver:  Solving for k, Initial residual = 0.0666093, Final residual = 0.00514649, No Iterations 6
ExecutionTime = 0.33 s  ClockTime = 1 s

scalarTransport execute: age
smoothSolver:  Solving for age, Initial residual = 0.0363044, Final residual = 0.00311065, No Iterations 4

Time = 20

smoothSolver:  Solving for Ux, Initial residual = 0.0246346, Final residual = 0.00179378, No Iterations 6
smoothSolver:  Solving for Uy, Initial residual = 0.0164675, Final residual = 0.00113373, No Iterations 6
GAMG:  Solving for p, Initial residual = 0.0170828, Final residual = 0.000833084, No Iterations 2
time step continuity errors : sum local = 0.00224113, global = 0.000220185, cumulative = 0.00469433
smoothSolver:  Solving for omega, Initial residual = 0.00734539, Final residual = 0.000479309, No Iterations 6
smoothSolver:  Solving for k, Initial residual = 0.0623145, Final residual = 0.00483293, No Iterations 6
ExecutionTime = 0.34 s  ClockTime = 1 s

scalarTransport execute: age
smoothSolver:  Solving for age, Initial residual = 0.0329158, Final residual = 0.00305094, No Iterations 4

Time = 21

smoothSolver:  Solving for Ux, Initial residual = 0.0241206, Final residual = 0.00176326, No Iterations 6
smoothSolver:  Solving for Uy, Initial residual = 0.0161232, Final residual = 0.00111245, No Iterations 6
GAMG:  Solving for p, Initial residual = 0.0164782, Final residual = 0.00081136, No Iterations 2
time step continuity errors : sum local = 0.00217184, global = 0.000208549, cumulative = 0.00490288
smoothSolver:  Solving for omega, Initial residual = 0.00666709, Final residual = 0.000436005, No Iterations 6
smoothSolver:  Solving for k, Initial residual = 0.0584725, Final residual = 0.00454887, No Iterations 6
ExecutionTime = 0.35 s  ClockTime = 1 s

scalarTransport execute: age
smoothSolver:  Solving for age, Initial residual = 0.029994, Final residual = 0.00244858, No Iterations 5

Time = 22

smoothSolver:  Solving for Ux, Initial residual = 0.0236615, Final residual = 0.00173509, No Iterations 6
smoothSolver:  Solving for Uy, Initial residual = 0.0158021, Final residual = 0.00108899, No Iterations 6
GAMG:  Solving for p, Initial residual = 0.0163876, Final residual = 0.000794283, No Iterations 2
time step continuity errors : sum local = 0.00211541, global = 0.000190531, cumulative = 0.00509341
smoothSolver:  Solving for omega, Initial residual = 0.00608738, Final residual = 0.00039854, No Iterations 6
smoothSolver:  Solving for k, Initial residual = 0.0550077, Final residual = 0.00428999, No Iterations 6
ExecutionTime = 0.37 s  ClockTime = 1 s

scalarTransport execute: age
smoothSolver:  Solving for age, Initial residual = 0.0273288, Final residual = 0.00231573, No Iterations 5

Time = 23

smoothSolver:  Solving for Ux, Initial residual = 0.0232527, Final residual = 0.00170931, No Iterations 6
smoothSolver:  Solving for Uy, Initial residual = 0.0154858, Final residual = 0.00106329, No Iterations 6
GAMG:  Solving for p, Initial residual = 0.0166883, Final residual = 0.000789415, No Iterations 2
time step continuity errors : sum local = 0.00209249, global = 0.000172476, cumulative = 0.00526588
smoothSolver:  Solving for omega, Initial residual = 0.00558857, Final residual = 0.000365444, No Iterations 6
smoothSolver:  Solving for k, Initial residual = 0.0518652, Final residual = 0.0040527, No Iterations 6
ExecutionTime = 0.38 s  ClockTime = 1 s

scalarTransport execute: age
smoothSolver:  Solving for age, Initial residual = 0.0253765, Final residual = 0.00230687, No Iterations 5

Time = 24

smoothSolver:  Solving for Ux, Initial residual = 0.0229305, Final residual = 0.00168732, No Iterations 6
smoothSolver:  Solving for Uy, Initial residual = 0.0151461, Final residual = 0.00103549, No Iterations 6
GAMG:  Solving for p, Initial residual = 0.0169992, Final residual = 0.000797849, No Iterations 2
time step continuity errors : sum local = 0.00210485, global = 0.000157067, cumulative = 0.00542295
smoothSolver:  Solving for omega, Initial residual = 0.00514967, Final residual = 0.000335926, No Iterations 6
smoothSolver:  Solving for k, Initial residual = 0.0489976, Final residual = 0.0038343, No Iterations 6
ExecutionTime = 0.4 s  ClockTime = 1 s

scalarTransport execute: age
smoothSolver:  Solving for age, Initial residual = 0.0239367, Final residual = 0.00238, No Iterations 5

Time = 25

smoothSolver:  Solving for Ux, Initial residual = 0.0226938, Final residual = 0.00166716, No Iterations 6
smoothSolver:  Solving for Uy, Initial residual = 0.0147585, Final residual = 0.00100639, No Iterations 6
GAMG:  Solving for p, Initial residual = 0.017046, Final residual = 0.000820484, No Iterations 2
time step continuity errors : sum local = 0.00215049, global = 0.00014494, cumulative = 0.00556789
smoothSolver:  Solving for omega, Initial residual = 0.00476444, Final residual = 0.000309599, No Iterations 6
smoothSolver:  Solving for k, Initial residual = 0.0463713, Final residual = 0.00363234, No Iterations 6
ExecutionTime = 0.42 s  ClockTime = 1 s

scalarTransport execute: age
smoothSolver:  Solving for age, Initial residual = 0.022961, Final residual = 0.00204854, No Iterations 6

Time = 26

smoothSolver:  Solving for Ux, Initial residual = 0.0224912, Final residual = 0.00164789, No Iterations 6
smoothSolver:  Solving for Uy, Initial residual = 0.0143055, Final residual = 0.000974691, No Iterations 6
GAMG:  Solving for p, Initial residual = 0.0167592, Final residual = 0.000840963, No Iterations 2
time step continuity errors : sum local = 0.00219206, global = 0.000135665, cumulative = 0.00570355
smoothSolver:  Solving for omega, Initial residual = 0.00442372, Final residual = 0.000285953, No Iterations 6
smoothSolver:  Solving for k, Initial residual = 0.0439528, Final residual = 0.0034454, No Iterations 6
ExecutionTime = 0.43 s  ClockTime = 1 s

scalarTransport execute: age
smoothSolver:  Solving for age, Initial residual = 0.0222978, Final residual = 0.00210177, No Iterations 6

Time = 27

smoothSolver:  Solving for Ux, Initial residual = 0.0223072, Final residual = 0.00162967, No Iterations 6
smoothSolver:  Solving for Uy, Initial residual = 0.013808, Final residual = 0.000940822, No Iterations 6
GAMG:  Solving for p, Initial residual = 0.0160611, Final residual = 0.000831056, No Iterations 2
time step continuity errors : sum local = 0.00215416, global = 0.000127947, cumulative = 0.0058315
smoothSolver:  Solving for omega, Initial residual = 0.00411858, Final residual = 0.000410156, No Iterations 5
smoothSolver:  Solving for k, Initial residual = 0.041761, Final residual = 0.00327529, No Iterations 6
ExecutionTime = 0.44 s  ClockTime = 1 s

scalarTransport execute: age
smoothSolver:  Solving for age, Initial residual = 0.0219841, Final residual = 0.00184006, No Iterations 7

Time = 28

smoothSolver:  Solving for Ux, Initial residual = 0.0221431, Final residual = 0.0016122, No Iterations 6
smoothSolver:  Solving for Uy, Initial residual = 0.0132682, Final residual = 0.00090657, No Iterations 6
GAMG:  Solving for p, Initial residual = 0.0151813, Final residual = 0.000806276, No Iterations 2
time step continuity errors : sum local = 0.00208013, global = 0.000120438, cumulative = 0.00595194
smoothSolver:  Solving for omega, Initial residual = 0.00386726, Final residual = 0.000382346, No Iterations 5
smoothSolver:  Solving for k, Initial residual = 0.0397509, Final residual = 0.0031193, No Iterations 6
ExecutionTime = 0.46 s  ClockTime = 1 s

scalarTransport execute: age
smoothSolver:  Solving for age, Initial residual = 0.0217028, Final residual = 0.0019667, No Iterations 7

Time = 29

smoothSolver:  Solving for Ux, Initial residual = 0.0219681, Final residual = 0.00159496, No Iterations 6
smoothSolver:  Solving for Uy, Initial residual = 0.0127191, Final residual = 0.000873868, No Iterations 6
GAMG:  Solving for p, Initial residual = 0.0143713, Final residual = 0.000792101, No Iterations 2
time step continuity errors : sum local = 0.00203699, global = 0.000113565, cumulative = 0.0060655
smoothSolver:  Solving for omega, Initial residual = 0.00364149, Final residual = 0.000356826, No Iterations 5
smoothSolver:  Solving for k, Initial residual = 0.0378755, Final residual = 0.00297485, No Iterations 6
ExecutionTime = 0.49 s  ClockTime = 1 s

scalarTransport execute: age
smoothSolver:  Solving for age, Initial residual = 0.0215749, Final residual = 0.00211507, No Iterations 7

Time = 30

smoothSolver:  Solving for Ux, Initial residual = 0.0217773, Final residual = 0.00157701, No Iterations 6
smoothSolver:  Solving for Uy, Initial residual = 0.0122106, Final residual = 0.000845248, No Iterations 6
GAMG:  Solving for p, Initial residual = 0.0138767, Final residual = 0.000795831, No Iterations 2
time step continuity errors : sum local = 0.00204601, global = 0.00010757, cumulative = 0.00617307
smoothSolver:  Solving for omega, Initial residual = 0.00343367, Final residual = 0.00033326, No Iterations 5
smoothSolver:  Solving for k, Initial residual = 0.0361339, Final residual = 0.00284185, No Iterations 6
ExecutionTime = 0.5 s  ClockTime = 1 s

scalarTransport execute: age
smoothSolver:  Solving for age, Initial residual = 0.0226483, Final residual = 0.00195187, No Iterations 8

Time = 31

smoothSolver:  Solving for Ux, Initial residual = 0.0215957, Final residual = 0.00155868, No Iterations 6
smoothSolver:  Solving for Uy, Initial residual = 0.0117878, Final residual = 0.00082063, No Iterations 6
GAMG:  Solving for p, Initial residual = 0.0133321, Final residual = 0.000837849, No Iterations 2
time step continuity errors : sum local = 0.00213781, global = 0.000102658, cumulative = 0.00627573
smoothSolver:  Solving for omega, Initial residual = 0.00324224, Final residual = 0.000311518, No Iterations 5
smoothSolver:  Solving for k, Initial residual = 0.0345231, Final residual = 0.0027193, No Iterations 6
ExecutionTime = 0.52 s  ClockTime = 1 s

scalarTransport execute: age
smoothSolver:  Solving for age, Initial residual = 0.0222485, Final residual = 0.00214548, No Iterations 8

Time = 32

smoothSolver:  Solving for Ux, Initial residual = 0.021422, Final residual = 0.00153934, No Iterations 6
smoothSolver:  Solving for Uy, Initial residual = 0.0114081, Final residual = 0.000798752, No Iterations 6
GAMG:  Solving for p, Initial residual = 0.0130108, Final residual = 0.000883769, No Iterations 2
time step continuity errors : sum local = 0.00224486, global = 9.75203e-05, cumulative = 0.00637325
smoothSolver:  Solving for omega, Initial residual = 0.00306375, Final residual = 0.000291703, No Iterations 5
smoothSolver:  Solving for k, Initial residual = 0.0330466, Final residual = 0.00260658, No Iterations 6
ExecutionTime = 0.54 s  ClockTime = 1 s

scalarTransport execute: age
smoothSolver:  Solving for age, Initial residual = 0.0221701, Final residual = 0.00204115, No Iterations 9

Time = 33

smoothSolver:  Solving for Ux, Initial residual = 0.0212444, Final residual = 0.00151866, No Iterations 6
smoothSolver:  Solving for Uy, Initial residual = 0.0110473, Final residual = 0.000779096, No Iterations 6
GAMG:  Solving for p, Initial residual = 0.0127298, Final residual = 0.000925948, No Iterations 2
time step continuity errors : sum local = 0.00234039, global = 9.24801e-05, cumulative = 0.00646573
smoothSolver:  Solving for omega, Initial residual = 0.00289417, Final residual = 0.000273564, No Iterations 5
smoothSolver:  Solving for k, Initial residual = 0.03169, Final residual = 0.00250246, No Iterations 6
ExecutionTime = 0.55 s  ClockTime = 1 s

scalarTransport execute: age
smoothSolver:  Solving for age, Initial residual = 0.0225762, Final residual = 0.00196034, No Iterations 10

Time = 34

smoothSolver:  Solving for Ux, Initial residual = 0.0210407, Final residual = 0.00149619, No Iterations 6
smoothSolver:  Solving for Uy, Initial residual = 0.0107392, Final residual = 0.000761971, No Iterations 6
GAMG:  Solving for p, Initial residual = 0.0124667, Final residual = 0.000963009, No Iterations 2
time step continuity errors : sum local = 0.00242242, global = 8.76691e-05, cumulative = 0.0065534
smoothSolver:  Solving for omega, Initial residual = 0.00273859, Final residual = 0.000256872, No Iterations 5
smoothSolver:  Solving for k, Initial residual = 0.0304436, Final residual = 0.00240608, No Iterations 6
ExecutionTime = 0.56 s  ClockTime = 1 s

scalarTransport execute: age
smoothSolver:  Solving for age, Initial residual = 0.0230839, Final residual = 0.00220002, No Iterations 10

Time = 35

smoothSolver:  Solving for Ux, Initial residual = 0.0208073, Final residual = 0.00147184, No Iterations 6
smoothSolver:  Solving for Uy, Initial residual = 0.0105008, Final residual = 0.000748185, No Iterations 6
GAMG:  Solving for p, Initial residual = 0.0122107, Final residual = 0.000994028, No Iterations 2
time step continuity errors : sum local = 0.00249109, global = 8.33465e-05, cumulative = 0.00663675
smoothSolver:  Solving for omega, Initial residual = 0.00259554, Final residual = 0.000241452, No Iterations 5
smoothSolver:  Solving for k, Initial residual = 0.0293042, Final residual = 0.00231688, No Iterations 6
ExecutionTime = 0.58 s  ClockTime = 1 s

scalarTransport execute: age
smoothSolver:  Solving for age, Initial residual = 0.0239519, Final residual = 0.0021607, No Iterations 11

Time = 36

smoothSolver:  Solving for Ux, Initial residual = 0.0205495, Final residual = 0.00144653, No Iterations 6
smoothSolver:  Solving for Uy, Initial residual = 0.0103142, Final residual = 0.000737781, No Iterations 6
GAMG:  Solving for p, Initial residual = 0.0119312, Final residual = 0.00101532, No Iterations 2
time step continuity errors : sum local = 0.00253592, global = 8.01823e-05, cumulative = 0.00671693
smoothSolver:  Solving for omega, Initial residual = 0.00246312, Final residual = 0.000227166, No Iterations 5
smoothSolver:  Solving for k, Initial residual = 0.0282585, Final residual = 0.00223412, No Iterations 6
ExecutionTime = 0.59 s  ClockTime = 1 s

scalarTransport execute: age
smoothSolver:  Solving for age, Initial residual = 0.0251508, Final residual = 0.00238884, No Iterations 11

Time = 37

smoothSolver:  Solving for Ux, Initial residual = 0.0202666, Final residual = 0.00142114, No Iterations 6
smoothSolver:  Solving for Uy, Initial residual = 0.0101704, Final residual = 0.000730703, No Iterations 6
GAMG:  Solving for p, Initial residual = 0.0116147, Final residual = 0.00102193, No Iterations 2
time step continuity errors : sum local = 0.00254432, global = 7.79125e-05, cumulative = 0.00679484
smoothSolver:  Solving for omega, Initial residual = 0.00232528, Final residual = 0.000213282, No Iterations 5
smoothSolver:  Solving for k, Initial residual = 0.0272935, Final residual = 0.00215755, No Iterations 6
ExecutionTime = 0.61 s  ClockTime = 1 s

scalarTransport execute: age
smoothSolver:  Solving for age, Initial residual = 0.0261833, Final residual = 0.0025685, No Iterations 11

Time = 38

smoothSolver:  Solving for Ux, Initial residual = 0.0199711, Final residual = 0.00139679, No Iterations 6
smoothSolver:  Solving for Uy, Initial residual = 0.0100584, Final residual = 0.000726091, No Iterations 6
GAMG:  Solving for p, Initial residual = 0.0112599, Final residual = 0.00101733, No Iterations 2
time step continuity errors : sum local = 0.00252384, global = 7.0932e-05, cumulative = 0.00686577
smoothSolver:  Solving for omega, Initial residual = 0.00220484, Final residual = 0.00020062, No Iterations 5
smoothSolver:  Solving for k, Initial residual = 0.0264047, Final residual = 0.00208662, No Iterations 6
ExecutionTime = 0.63 s  ClockTime = 1 s

scalarTransport execute: age
smoothSolver:  Solving for age, Initial residual = 0.0268821, Final residual = 0.00236264, No Iterations 12

Time = 39

smoothSolver:  Solving for Ux, Initial residual = 0.0196801, Final residual = 0.00137411, No Iterations 6
smoothSolver:  Solving for Uy, Initial residual = 0.00995885, Final residual = 0.00072325, No Iterations 6
GAMG:  Solving for p, Initial residual = 0.0109204, Final residual = 0.00101398, No Iterations 2
time step continuity errors : sum local = 0.00250514, global = 6.57274e-05, cumulative = 0.0069315
smoothSolver:  Solving for omega, Initial residual = 0.00209639, Final residual = 0.000189181, No Iterations 5
smoothSolver:  Solving for k, Initial residual = 0.0255786, Final residual = 0.00202054, No Iterations 6
ExecutionTime = 0.64 s  ClockTime = 1 s

scalarTransport execute: age
smoothSolver:  Solving for age, Initial residual = 0.0268678, Final residual = 0.00235201, No Iterations 12

Time = 40

smoothSolver:  Solving for Ux, Initial residual = 0.0193749, Final residual = 0.00135137, No Iterations 6
smoothSolver:  Solving for Uy, Initial residual = 0.00988087, Final residual = 0.000722374, No Iterations 6
GAMG:  Solving for p, Initial residual = 0.0106159, Final residual = 0.00101304, No Iterations 2
time step continuity errors : sum local = 0.00249168, global = 7.03303e-05, cumulative = 0.00700183
smoothSolver:  Solving for omega, Initial residual = 0.00199369, Final residual = 0.000178514, No Iterations 5
smoothSolver:  Solving for k, Initial residual = 0.0248106, Final residual = 0.00195884, No Iterations 6
ExecutionTime = 0.66 s  ClockTime = 1 s

scalarTransport execute: age
smoothSolver:  Solving for age, Initial residual = 0.0265395, Final residual = 0.00259047, No Iterations 11

Time = 41

smoothSolver:  Solving for Ux, Initial residual = 0.0190358, Final residual = 0.00132713, No Iterations 6
smoothSolver:  Solving for Uy, Initial residual = 0.00982549, Final residual = 0.000723718, No Iterations 6
GAMG:  Solving for p, Initial residual = 0.0103297, Final residual = 0.00101256, No Iterations 2
time step continuity errors : sum local = 0.0024798, global = 7.70893e-05, cumulative = 0.00707892
smoothSolver:  Solving for omega, Initial residual = 0.00189912, Final residual = 0.000168635, No Iterations 5
smoothSolver:  Solving for k, Initial residual = 0.0240991, Final residual = 0.00190108, No Iterations 6
ExecutionTime = 0.67 s  ClockTime = 1 s

scalarTransport execute: age
smoothSolver:  Solving for age, Initial residual = 0.0262808, Final residual = 0.00239399, No Iterations 11

Time = 42

smoothSolver:  Solving for Ux, Initial residual = 0.0186897, Final residual = 0.00130318, No Iterations 6
smoothSolver:  Solving for Uy, Initial residual = 0.00977748, Final residual = 0.000726087, No Iterations 6
GAMG:  Solving for p, Initial residual = 0.01005, Final residual = 0.000501138, No Iterations 3
time step continuity errors : sum local = 0.00122193, global = 8.39909e-05, cumulative = 0.00716291
smoothSolver:  Solving for omega, Initial residual = 0.00182099, Final residual = 0.000159329, No Iterations 5
smoothSolver:  Solving for k, Initial residual = 0.023466, Final residual = 0.00184775, No Iterations 6
ExecutionTime = 0.69 s  ClockTime = 1 s

scalarTransport execute: age
smoothSolver:  Solving for age, Initial residual = 0.0262266, Final residual = 0.00251682, No Iterations 10

Time = 43

smoothSolver:  Solving for Ux, Initial residual = 0.0185344, Final residual = 0.00129062, No Iterations 6
smoothSolver:  Solving for Uy, Initial residual = 0.0098239, Final residual = 0.000736459, No Iterations 6
GAMG:  Solving for p, Initial residual = 0.00946159, Final residual = 0.000826667, No Iterations 2
time step continuity errors : sum local = 0.00200085, global = 9.27579e-05, cumulative = 0.00725567
smoothSolver:  Solving for omega, Initial residual = 0.00174272, Final residual = 0.000150944, No Iterations 5
smoothSolver:  Solving for k, Initial residual = 0.0228312, Final residual = 0.00179583, No Iterations 6
ExecutionTime = 0.7 s  ClockTime = 1 s

scalarTransport execute: age
smoothSolver:  Solving for age, Initial residual = 0.0258462, Final residual = 0.00234302, No Iterations 10

Time = 44

smoothSolver:  Solving for Ux, Initial residual = 0.0181134, Final residual = 0.00126563, No Iterations 6
smoothSolver:  Solving for Uy, Initial residual = 0.00975869, Final residual = 0.000731197, No Iterations 6
GAMG:  Solving for p, Initial residual = 0.0097895, Final residual = 0.000497316, No Iterations 3
time step continuity errors : sum local = 0.00120181, global = 8.50703e-05, cumulative = 0.00734074
smoothSolver:  Solving for omega, Initial residual = 0.00168611, Final residual = 0.000142866, No Iterations 5
smoothSolver:  Solving for k, Initial residual = 0.0222583, Final residual = 0.00174779, No Iterations 6
ExecutionTime = 0.72 s  ClockTime = 1 s

scalarTransport execute: age
smoothSolver:  Solving for age, Initial residual = 0.0258677, Final residual = 0.00257817, No Iterations 9

Time = 45

smoothSolver:  Solving for Ux, Initial residual = 0.0178723, Final residual = 0.00124126, No Iterations 6
smoothSolver:  Solving for Uy, Initial residual = 0.00974418, Final residual = 0.000732389, No Iterations 6
GAMG:  Solving for p, Initial residual = 0.00908529, Final residual = 0.000867725, No Iterations 2
time step continuity errors : sum local = 0.00208156, global = 7.16494e-05, cumulative = 0.00741239
smoothSolver:  Solving for omega, Initial residual = 0.00159655, Final residual = 0.00013599, No Iterations 5
smoothSolver:  Solving for k, Initial residual = 0.0216839, Final residual = 0.00170062, No Iterations 6
ExecutionTime = 0.73 s  ClockTime = 1 s

scalarTransport execute: age
smoothSolver:  Solving for age, Initial residual = 0.0257164, Final residual = 0.00246674, No Iterations 9

Time = 46

smoothSolver:  Solving for Ux, Initial residual = 0.0175748, Final residual = 0.00121947, No Iterations 6
smoothSolver:  Solving for Uy, Initial residual = 0.0096626, Final residual = 0.000724377, No Iterations 6
GAMG:  Solving for p, Initial residual = 0.00956382, Final residual = 0.000503811, No Iterations 3
time step continuity errors : sum local = 0.00120366, global = 9.50177e-05, cumulative = 0.00750741
smoothSolver:  Solving for omega, Initial residual = 0.0015476, Final residual = 0.000128979, No Iterations 5
smoothSolver:  Solving for k, Initial residual = 0.0211654, Final residual = 0.00165676, No Iterations 6
ExecutionTime = 0.75 s  ClockTime = 1 s

scalarTransport execute: age
smoothSolver:  Solving for age, Initial residual = 0.0258277, Final residual = 0.00237039, No Iterations 9

Time = 47

smoothSolver:  Solving for Ux, Initial residual = 0.0173977, Final residual = 0.00119948, No Iterations 6
smoothSolver:  Solving for Uy, Initial residual = 0.00966228, Final residual = 0.000725761, No Iterations 6
GAMG:  Solving for p, Initial residual = 0.00894207, Final residual = 0.000438739, No Iterations 3
time step continuity errors : sum local = 0.00103999, global = 7.45133e-05, cumulative = 0.00758192
smoothSolver:  Solving for omega, Initial residual = 0.00150796, Final residual = 0.000123225, No Iterations 5
smoothSolver:  Solving for k, Initial residual = 0.0206622, Final residual = 0.00161424, No Iterations 6
ExecutionTime = 0.76 s  ClockTime = 1 s

scalarTransport execute: age
smoothSolver:  Solving for age, Initial residual = 0.0256441, Final residual = 0.0022842, No Iterations 9

Time = 48

smoothSolver:  Solving for Ux, Initial residual = 0.0172645, Final residual = 0.0011901, No Iterations 6
smoothSolver:  Solving for Uy, Initial residual = 0.00959203, Final residual = 0.000717232, No Iterations 6
GAMG:  Solving for p, Initial residual = 0.00914448, Final residual = 0.000435479, No Iterations 3
time step continuity errors : sum local = 0.00102369, global = 6.3122e-05, cumulative = 0.00764504
smoothSolver:  Solving for omega, Initial residual = 0.00146504, Final residual = 0.000118342, No Iterations 5
smoothSolver:  Solving for k, Initial residual = 0.0201708, Final residual = 0.00157293, No Iterations 6
ExecutionTime = 0.78 s  ClockTime = 1 s

scalarTransport execute: age
smoothSolver:  Solving for age, Initial residual = 0.0254287, Final residual = 0.00226268, No Iterations 9

Time = 49

smoothSolver:  Solving for Ux, Initial residual = 0.0170657, Final residual = 0.00117359, No Iterations 6
smoothSolver:  Solving for Uy, Initial residual = 0.00947862, Final residual = 0.000706042, No Iterations 6
GAMG:  Solving for p, Initial residual = 0.00941458, Final residual = 0.000460569, No Iterations 3
time step continuity errors : sum local = 0.001076, global = 5.73485e-05, cumulative = 0.00770239
smoothSolver:  Solving for omega, Initial residual = 0.00141969, Final residual = 0.000113999, No Iterations 5
smoothSolver:  Solving for k, Initial residual = 0.0196909, Final residual = 0.00153258, No Iterations 6
ExecutionTime = 0.79 s  ClockTime = 1 s

scalarTransport execute: age
smoothSolver:  Solving for age, Initial residual = 0.0247618, Final residual = 0.00225558, No Iterations 9

Time = 50

smoothSolver:  Solving for Ux, Initial residual = 0.0168589, Final residual = 0.00115595, No Iterations 6
smoothSolver:  Solving for Uy, Initial residual = 0.00930808, Final residual = 0.000690922, No Iterations 6
GAMG:  Solving for p, Initial residual = 0.00956193, Final residual = 0.000479102, No Iterations 3
time step continuity errors : sum local = 0.00111219, global = 5.74278e-05, cumulative = 0.00775982
smoothSolver:  Solving for omega, Initial residual = 0.0013898, Final residual = 0.000110512, No Iterations 5
smoothSolver:  Solving for k, Initial residual = 0.0192243, Final residual = 0.001493, No Iterations 6
ExecutionTime = 0.81 s  ClockTime = 1 s

scalarTransport execute: age
smoothSolver:  Solving for age, Initial residual = 0.0241203, Final residual = 0.00221926, No Iterations 9

Time = 51

smoothSolver:  Solving for Ux, Initial residual = 0.0166326, Final residual = 0.00113774, No Iterations 6
smoothSolver:  Solving for Uy, Initial residual = 0.00912605, Final residual = 0.000674643, No Iterations 6
GAMG:  Solving for p, Initial residual = 0.00968571, Final residual = 0.000490645, No Iterations 3
time step continuity errors : sum local = 0.00113323, global = 6.29855e-05, cumulative = 0.0078228
smoothSolver:  Solving for omega, Initial residual = 0.00136505, Final residual = 0.00010741, No Iterations 5
smoothSolver:  Solving for k, Initial residual = 0.0187643, Final residual = 0.00145383, No Iterations 6
ExecutionTime = 0.82 s  ClockTime = 1 s

scalarTransport execute: age
smoothSolver:  Solving for age, Initial residual = 0.0235513, Final residual = 0.00220979, No Iterations 9

Time = 52

smoothSolver:  Solving for Ux, Initial residual = 0.0163882, Final residual = 0.00111862, No Iterations 6
smoothSolver:  Solving for Uy, Initial residual = 0.00892905, Final residual = 0.000656691, No Iterations 6
GAMG:  Solving for p, Initial residual = 0.00977278, Final residual = 0.000499482, No Iterations 3
time step continuity errors : sum local = 0.00114943, global = 6.74207e-05, cumulative = 0.00789022
smoothSolver:  Solving for omega, Initial residual = 0.00134578, Final residual = 0.000104626, No Iterations 5
smoothSolver:  Solving for k, Initial residual = 0.0183057, Final residual = 0.00141484, No Iterations 6
ExecutionTime = 0.84 s  ClockTime = 1 s

scalarTransport execute: age
smoothSolver:  Solving for age, Initial residual = 0.0230513, Final residual = 0.00222458, No Iterations 9

Time = 53

smoothSolver:  Solving for Ux, Initial residual = 0.0161467, Final residual = 0.00109976, No Iterations 6
smoothSolver:  Solving for Uy, Initial residual = 0.00871167, Final residual = 0.000636299, No Iterations 6
GAMG:  Solving for p, Initial residual = 0.00988061, Final residual = 0.000510098, No Iterations 3
time step continuity errors : sum local = 0.00117148, global = 7.36201e-05, cumulative = 0.00796384
smoothSolver:  Solving for omega, Initial residual = 0.00132583, Final residual = 0.000101914, No Iterations 5
smoothSolver:  Solving for k, Initial residual = 0.0178468, Final residual = 0.00137583, No Iterations 6
ExecutionTime = 0.85 s  ClockTime = 1 s

scalarTransport execute: age
smoothSolver:  Solving for age, Initial residual = 0.022517, Final residual = 0.00195736, No Iterations 10

Time = 54

smoothSolver:  Solving for Ux, Initial residual = 0.0159034, Final residual = 0.00108096, No Iterations 6
smoothSolver:  Solving for Uy, Initial residual = 0.00846921, Final residual = 0.000613985, No Iterations 6
GAMG:  Solving for p, Initial residual = 0.00996331, Final residual = 0.000534309, No Iterations 3
time step continuity errors : sum local = 0.00122664, global = 8.22189e-05, cumulative = 0.00804606
smoothSolver:  Solving for omega, Initial residual = 0.00131191, Final residual = 9.94565e-05, No Iterations 5
smoothSolver:  Solving for k, Initial residual = 0.0173848, Final residual = 0.00133655, No Iterations 6
ExecutionTime = 0.86 s  ClockTime = 1 s

scalarTransport execute: age
smoothSolver:  Solving for age, Initial residual = 0.0221497, Final residual = 0.0020034, No Iterations 10

Time = 55

smoothSolver:  Solving for Ux, Initial residual = 0.0156492, Final residual = 0.00106194, No Iterations 6
smoothSolver:  Solving for Uy, Initial residual = 0.00820707, Final residual = 0.000589963, No Iterations 6
GAMG:  Solving for p, Initial residual = 0.0100392, Final residual = 0.000546374, No Iterations 3
time step continuity errors : sum local = 0.00125601, global = 8.83549e-05, cumulative = 0.00813442
smoothSolver:  Solving for omega, Initial residual = 0.00129515, Final residual = 9.70149e-05, No Iterations 5
smoothSolver:  Solving for k, Initial residual = 0.0169198, Final residual = 0.00129682, No Iterations 6
ExecutionTime = 0.88 s  ClockTime = 1 s

scalarTransport execute: age
smoothSolver:  Solving for age, Initial residual = 0.0217953, Final residual = 0.00207402, No Iterations 10

Time = 56

smoothSolver:  Solving for Ux, Initial residual = 0.015394, Final residual = 0.00104322, No Iterations 6
smoothSolver:  Solving for Uy, Initial residual = 0.00793921, Final residual = 0.000565169, No Iterations 6
GAMG:  Solving for p, Initial residual = 0.0101052, Final residual = 0.000552913, No Iterations 3
time step continuity errors : sum local = 0.00127401, global = 9.18937e-05, cumulative = 0.00822631
smoothSolver:  Solving for omega, Initial residual = 0.00127857, Final residual = 9.45338e-05, No Iterations 5
smoothSolver:  Solving for k, Initial residual = 0.0164504, Final residual = 0.00125654, No Iterations 6
ExecutionTime = 0.89 s  ClockTime = 1 s

scalarTransport execute: age
smoothSolver:  Solving for age, Initial residual = 0.0214459, Final residual = 0.00190312, No Iterations 11

Time = 57

smoothSolver:  Solving for Ux, Initial residual = 0.0151356, Final residual = 0.00102425, No Iterations 6
smoothSolver:  Solving for Uy, Initial residual = 0.00766769, Final residual = 0.000540277, No Iterations 6
GAMG:  Solving for p, Initial residual = 0.0101434, Final residual = 0.000554563, No Iterations 3
time step continuity errors : sum local = 0.00128274, global = 9.35162e-05, cumulative = 0.00831983
smoothSolver:  Solving for omega, Initial residual = 0.00126209, Final residual = 9.20344e-05, No Iterations 5
smoothSolver:  Solving for k, Initial residual = 0.0159759, Final residual = 0.00121579, No Iterations 6
ExecutionTime = 0.9 s  ClockTime = 1 s

scalarTransport execute: age
smoothSolver:  Solving for age, Initial residual = 0.021173, Final residual = 0.00198917, No Iterations 11

Time = 58

smoothSolver:  Solving for Ux, Initial residual = 0.0148705, Final residual = 0.00100509, No Iterations 6
smoothSolver:  Solving for Uy, Initial residual = 0.00739421, Final residual = 0.000516307, No Iterations 6
GAMG:  Solving for p, Initial residual = 0.0102581, Final residual = 0.000550594, No Iterations 3
time step continuity errors : sum local = 0.00128049, global = 9.42882e-05, cumulative = 0.00841412
smoothSolver:  Solving for omega, Initial residual = 0.00124698, Final residual = 8.93697e-05, No Iterations 5
smoothSolver:  Solving for k, Initial residual = 0.0154968, Final residual = 0.00117458, No Iterations 6
ExecutionTime = 0.92 s  ClockTime = 1 s

scalarTransport execute: age
smoothSolver:  Solving for age, Initial residual = 0.0209812, Final residual = 0.00208912, No Iterations 11

Time = 59

smoothSolver:  Solving for Ux, Initial residual = 0.0145995, Final residual = 0.0009851, No Iterations 6
smoothSolver:  Solving for Uy, Initial residual = 0.00712747, Final residual = 0.000494883, No Iterations 6
GAMG:  Solving for p, Initial residual = 0.0104694, Final residual = 0.000535638, No Iterations 3
time step continuity errors : sum local = 0.00125859, global = 9.4049e-05, cumulative = 0.00850817
smoothSolver:  Solving for omega, Initial residual = 0.00123048, Final residual = 8.67748e-05, No Iterations 5
smoothSolver:  Solving for k, Initial residual = 0.015007, Final residual = 0.00113281, No Iterations 6
ExecutionTime = 0.93 s  ClockTime = 1 s

scalarTransport execute: age
smoothSolver:  Solving for age, Initial residual = 0.0208696, Final residual = 0.00193784, No Iterations 12

Time = 60

smoothSolver:  Solving for Ux, Initial residual = 0.0143276, Final residual = 0.000964404, No Iterations 6
smoothSolver:  Solving for Uy, Initial residual = 0.00688751, Final residual = 0.000479879, No Iterations 6
GAMG:  Solving for p, Initial residual = 0.0106459, Final residual = 0.000502048, No Iterations 3
time step continuity errors : sum local = 0.00118812, global = 9.20293e-05, cumulative = 0.00860019
smoothSolver:  Solving for omega, Initial residual = 0.00121479, Final residual = 8.38869e-05, No Iterations 5
smoothSolver:  Solving for k, Initial residual = 0.0145166, Final residual = 0.00109076, No Iterations 6
ExecutionTime = 0.94 s  ClockTime = 1 s

scalarTransport execute: age
smoothSolver:  Solving for age, Initial residual = 0.0208769, Final residual = 0.00204453, No Iterations 12

Time = 61

smoothSolver:  Solving for Ux, Initial residual = 0.0140883, Final residual = 0.000943742, No Iterations 6
smoothSolver:  Solving for Uy, Initial residual = 0.00672791, Final residual = 0.000470988, No Iterations 6
GAMG:  Solving for p, Initial residual = 0.0104124, Final residual = 0.000999237, No Iterations 2
time step continuity errors : sum local = 0.00234394, global = 0.000135892, cumulative = 0.00873609
smoothSolver:  Solving for omega, Initial residual = 0.00119101, Final residual = 8.03162e-05, No Iterations 5
smoothSolver:  Solving for k, Initial residual = 0.014011, Final residual = 0.0010481, No Iterations 6
ExecutionTime = 0.96 s  ClockTime = 1 s

scalarTransport execute: age
smoothSolver:  Solving for age, Initial residual = 0.0211545, Final residual = 0.00190168, No Iterations 13

Time = 62

smoothSolver:  Solving for Ux, Initial residual = 0.013708, Final residual = 0.000918157, No Iterations 6
smoothSolver:  Solving for Uy, Initial residual = 0.00662411, Final residual = 0.000464902, No Iterations 6
GAMG:  Solving for p, Initial residual = 0.0110469, Final residual = 0.000536894, No Iterations 3
time step continuity errors : sum local = 0.00125648, global = 0.000105876, cumulative = 0.00884196
smoothSolver:  Solving for omega, Initial residual = 0.00117304, Final residual = 7.64968e-05, No Iterations 5
smoothSolver:  Solving for k, Initial residual = 0.0135126, Final residual = 0.00100615, No Iterations 6
ExecutionTime = 0.97 s  ClockTime = 1 s

scalarTransport execute: age
smoothSolver:  Solving for age, Initial residual = 0.0217337, Final residual = 0.00200418, No Iterations 13

Time = 63

smoothSolver:  Solving for Ux, Initial residual = 0.0136512, Final residual = 0.000904791, No Iterations 6
smoothSolver:  Solving for Uy, Initial residual = 0.00653087, Final residual = 0.000455772, No Iterations 6
GAMG:  Solving for p, Initial residual = 0.0107902, Final residual = 0.000978874, No Iterations 2
time step continuity errors : sum local = 0.00227157, global = 0.000141045, cumulative = 0.00898301
smoothSolver:  Solving for omega, Initial residual = 0.00114855, Final residual = 7.14544e-05, No Iterations 5
smoothSolver:  Solving for k, Initial residual = 0.0130124, Final residual = 0.000964067, No Iterations 6
ExecutionTime = 0.98 s  ClockTime = 1 s

scalarTransport execute: age
smoothSolver:  Solving for age, Initial residual = 0.0222754, Final residual = 0.00210106, No Iterations 13

Time = 64

smoothSolver:  Solving for Ux, Initial residual = 0.0132448, Final residual = 0.000882891, No Iterations 6
smoothSolver:  Solving for Uy, Initial residual = 0.00649918, Final residual = 0.000452155, No Iterations 6
GAMG:  Solving for p, Initial residual = 0.0111669, Final residual = 0.00049702, No Iterations 3
time step continuity errors : sum local = 0.001152, global = 0.000107127, cumulative = 0.00909014
smoothSolver:  Solving for omega, Initial residual = 0.00110387, Final residual = 0.00011002, No Iterations 4
smoothSolver:  Solving for k, Initial residual = 0.0125405, Final residual = 0.00092423, No Iterations 6
ExecutionTime = 0.99 s  ClockTime = 1 s

scalarTransport execute: age
smoothSolver:  Solving for age, Initial residual = 0.0229168, Final residual = 0.00221071, No Iterations 13

Time = 65

smoothSolver:  Solving for Ux, Initial residual = 0.0131093, Final residual = 0.00086673, No Iterations 6
smoothSolver:  Solving for Uy, Initial residual = 0.00644074, Final residual = 0.000445887, No Iterations 6
GAMG:  Solving for p, Initial residual = 0.0108808, Final residual = 0.000998955, No Iterations 2
time step continuity errors : sum local = 0.00230672, global = 0.000139974, cumulative = 0.00923011
smoothSolver:  Solving for omega, Initial residual = 0.00108419, Final residual = 0.000105153, No Iterations 4
smoothSolver:  Solving for k, Initial residual = 0.0121, Final residual = 0.000885173, No Iterations 6
ExecutionTime = 1.01 s  ClockTime = 1 s

scalarTransport execute: age
smoothSolver:  Solving for age, Initial residual = 0.0238022, Final residual = 0.00229677, No Iterations 13

Time = 66

smoothSolver:  Solving for Ux, Initial residual = 0.0127255, Final residual = 0.000847024, No Iterations 6
smoothSolver:  Solving for Uy, Initial residual = 0.00638498, Final residual = 0.000440646, No Iterations 6
GAMG:  Solving for p, Initial residual = 0.0110013, Final residual = 0.000525921, No Iterations 3
time step continuity errors : sum local = 0.00121682, global = 0.000119907, cumulative = 0.00935002
smoothSolver:  Solving for omega, Initial residual = 0.00104862, Final residual = 0.000100223, No Iterations 4
smoothSolver:  Solving for k, Initial residual = 0.0116812, Final residual = 0.000849335, No Iterations 6
ExecutionTime = 1.01 s  ClockTime = 1 s

scalarTransport execute: age
smoothSolver:  Solving for age, Initial residual = 0.024324, Final residual = 0.00232563, No Iterations 13

Time = 67

smoothSolver:  Solving for Ux, Initial residual = 0.012489, Final residual = 0.000823424, No Iterations 6
smoothSolver:  Solving for Uy, Initial residual = 0.00632923, Final residual = 0.000435898, No Iterations 6
GAMG:  Solving for p, Initial residual = 0.0106161, Final residual = 0.000980648, No Iterations 2
time step continuity errors : sum local = 0.00226741, global = 0.000170577, cumulative = 0.00952059
smoothSolver:  Solving for omega, Initial residual = 0.00102614, Final residual = 9.52395e-05, No Iterations 4
smoothSolver:  Solving for k, Initial residual = 0.0113009, Final residual = 0.000814332, No Iterations 6
ExecutionTime = 1.02 s  ClockTime = 1 s

scalarTransport execute: age
smoothSolver:  Solving for age, Initial residual = 0.0234152, Final residual = 0.00218792, No Iterations 13

Time = 68

smoothSolver:  Solving for Ux, Initial residual = 0.012123, Final residual = 0.000803486, No Iterations 6
smoothSolver:  Solving for Uy, Initial residual = 0.00628815, Final residual = 0.000433383, No Iterations 6
GAMG:  Solving for p, Initial residual = 0.0104282, Final residual = 0.000536411, No Iterations 3
time step continuity errors : sum local = 0.0012425, global = 0.000118819, cumulative = 0.00963941
smoothSolver:  Solving for omega, Initial residual = 0.000984246, Final residual = 9.00269e-05, No Iterations 4
smoothSolver:  Solving for k, Initial residual = 0.010943, Final residual = 0.000782902, No Iterations 6
ExecutionTime = 1.05 s  ClockTime = 2 s

scalarTransport execute: age
smoothSolver:  Solving for age, Initial residual = 0.0215771, Final residual = 0.00196913, No Iterations 13

Time = 69

smoothSolver:  Solving for Ux, Initial residual = 0.0118122, Final residual = 0.000776204, No Iterations 6
smoothSolver:  Solving for Uy, Initial residual = 0.00628861, Final residual = 0.00043592, No Iterations 6
GAMG:  Solving for p, Initial residual = 0.00985085, Final residual = 0.000904128, No Iterations 2
time step continuity errors : sum local = 0.00208018, global = 0.000175162, cumulative = 0.00981457
smoothSolver:  Solving for omega, Initial residual = 0.000964694, Final residual = 8.58823e-05, No Iterations 4
smoothSolver:  Solving for k, Initial residual = 0.010616, Final residual = 0.00075129, No Iterations 6
ExecutionTime = 1.06 s  ClockTime = 2 s

scalarTransport execute: age
smoothSolver:  Solving for age, Initial residual = 0.0193985, Final residual = 0.00189053, No Iterations 12

Time = 70

smoothSolver:  Solving for Ux, Initial residual = 0.0114383, Final residual = 0.000757333, No Iterations 6
smoothSolver:  Solving for Uy, Initial residual = 0.00628132, Final residual = 0.000437365, No Iterations 6
GAMG:  Solving for p, Initial residual = 0.00998783, Final residual = 0.000511114, No Iterations 3
time step continuity errors : sum local = 0.00117985, global = 0.00011049, cumulative = 0.00992506
smoothSolver:  Solving for omega, Initial residual = 0.000938386, Final residual = 8.168e-05, No Iterations 4
smoothSolver:  Solving for k, Initial residual = 0.0102931, Final residual = 0.000722279, No Iterations 6
ExecutionTime = 1.07 s  ClockTime = 2 s

scalarTransport execute: age
smoothSolver:  Solving for age, Initial residual = 0.0175585, Final residual = 0.00165384, No Iterations 12

Time = 71

smoothSolver:  Solving for Ux, Initial residual = 0.0110755, Final residual = 0.000723447, No Iterations 6
smoothSolver:  Solving for Uy, Initial residual = 0.0063454, Final residual = 0.000441233, No Iterations 6
GAMG:  Solving for p, Initial residual = 0.00977906, Final residual = 0.00084425, No Iterations 2
time step continuity errors : sum local = 0.00193673, global = 0.000172106, cumulative = 0.0100972
smoothSolver:  Solving for omega, Initial residual = 0.000935159, Final residual = 7.81002e-05, No Iterations 4
smoothSolver:  Solving for k, Initial residual = 0.00999071, Final residual = 0.000692593, No Iterations 6
ExecutionTime = 1.09 s  ClockTime = 2 s

scalarTransport execute: age
smoothSolver:  Solving for age, Initial residual = 0.0158329, Final residual = 0.00147629, No Iterations 12

Time = 72

smoothSolver:  Solving for Ux, Initial residual = 0.0106805, Final residual = 0.000703694, No Iterations 6
smoothSolver:  Solving for Uy, Initial residual = 0.00632321, Final residual = 0.000440706, No Iterations 6
GAMG:  Solving for p, Initial residual = 0.0101949, Final residual = 0.000957163, No Iterations 2
time step continuity errors : sum local = 0.00220034, global = 0.000275201, cumulative = 0.0103724
smoothSolver:  Solving for omega, Initial residual = 0.000910543, Final residual = 7.46616e-05, No Iterations 4
smoothSolver:  Solving for k, Initial residual = 0.00967734, Final residual = 0.00066421, No Iterations 6
ExecutionTime = 1.1 s  ClockTime = 2 s

scalarTransport execute: age
smoothSolver:  Solving for age, Initial residual = 0.0146814, Final residual = 0.0013789, No Iterations 12

Time = 73

smoothSolver:  Solving for Ux, Initial residual = 0.0102255, Final residual = 0.000668711, No Iterations 6
smoothSolver:  Solving for Uy, Initial residual = 0.00636337, Final residual = 0.000442304, No Iterations 6
GAMG:  Solving for p, Initial residual = 0.0101721, Final residual = 0.000920891, No Iterations 2
time step continuity errors : sum local = 0.00211557, global = 0.000352285, cumulative = 0.0107247
smoothSolver:  Solving for omega, Initial residual = 0.000887137, Final residual = 7.10476e-05, No Iterations 4
smoothSolver:  Solving for k, Initial residual = 0.00938283, Final residual = 0.000636917, No Iterations 6
ExecutionTime = 1.11 s  ClockTime = 2 s

scalarTransport execute: age
smoothSolver:  Solving for age, Initial residual = 0.0136918, Final residual = 0.00127941, No Iterations 12

Time = 74

smoothSolver:  Solving for Ux, Initial residual = 0.00980567, Final residual = 0.00063791, No Iterations 6
smoothSolver:  Solving for Uy, Initial residual = 0.0063696, Final residual = 0.000441502, No Iterations 6
GAMG:  Solving for p, Initial residual = 0.0099882, Final residual = 0.000892408, No Iterations 2
time step continuity errors : sum local = 0.00204946, global = 0.000293724, cumulative = 0.0110184
smoothSolver:  Solving for omega, Initial residual = 0.0008825, Final residual = 6.75879e-05, No Iterations 4
smoothSolver:  Solving for k, Initial residual = 0.0090973, Final residual = 0.000610817, No Iterations 6
ExecutionTime = 1.12 s  ClockTime = 2 s

scalarTransport execute: age
smoothSolver:  Solving for age, Initial residual = 0.0130046, Final residual = 0.00118479, No Iterations 12

Time = 75

smoothSolver:  Solving for Ux, Initial residual = 0.00948917, Final residual = 0.000944349, No Iterations 5
smoothSolver:  Solving for Uy, Initial residual = 0.00638537, Final residual = 0.000438804, No Iterations 6
GAMG:  Solving for p, Initial residual = 0.00981709, Final residual = 0.000799546, No Iterations 2
time step continuity errors : sum local = 0.00182401, global = 0.000274478, cumulative = 0.0112929
smoothSolver:  Solving for omega, Initial residual = 0.000869853, Final residual = 6.45717e-05, No Iterations 4
smoothSolver:  Solving for k, Initial residual = 0.0088367, Final residual = 0.000584974, No Iterations 6
ExecutionTime = 1.14 s  ClockTime = 2 s

scalarTransport execute: age
smoothSolver:  Solving for age, Initial residual = 0.0123686, Final residual = 0.00107913, No Iterations 12

Time = 76

smoothSolver:  Solving for Ux, Initial residual = 0.00920396, Final residual = 0.000917581, No Iterations 5
smoothSolver:  Solving for Uy, Initial residual = 0.00628095, Final residual = 0.000426381, No Iterations 6
GAMG:  Solving for p, Initial residual = 0.00973592, Final residual = 0.000777125, No Iterations 2
time step continuity errors : sum local = 0.00176473, global = 0.000289285, cumulative = 0.0115821
smoothSolver:  Solving for omega, Initial residual = 0.000858407, Final residual = 6.20049e-05, No Iterations 4
smoothSolver:  Solving for k, Initial residual = 0.00855643, Final residual = 0.000560016, No Iterations 6
ExecutionTime = 1.15 s  ClockTime = 2 s

scalarTransport execute: age
smoothSolver:  Solving for age, Initial residual = 0.0117456, Final residual = 0.00113428, No Iterations 11

Time = 77

smoothSolver:  Solving for Ux, Initial residual = 0.00885182, Final residual = 0.000878749, No Iterations 5
smoothSolver:  Solving for Uy, Initial residual = 0.00617978, Final residual = 0.000415769, No Iterations 6
GAMG:  Solving for p, Initial residual = 0.00957394, Final residual = 0.000777612, No Iterations 2
time step continuity errors : sum local = 0.00175889, global = 0.000302418, cumulative = 0.0118846
smoothSolver:  Solving for omega, Initial residual = 0.000844372, Final residual = 5.98584e-05, No Iterations 4
smoothSolver:  Solving for k, Initial residual = 0.00827719, Final residual = 0.000536344, No Iterations 6
ExecutionTime = 1.16 s  ClockTime = 2 s

scalarTransport execute: age
smoothSolver:  Solving for age, Initial residual = 0.0112164, Final residual = 0.00104386, No Iterations 11

Time = 78

smoothSolver:  Solving for Ux, Initial residual = 0.00847012, Final residual = 0.000832879, No Iterations 5
smoothSolver:  Solving for Uy, Initial residual = 0.00610417, Final residual = 0.0004048, No Iterations 6
GAMG:  Solving for p, Initial residual = 0.00946737, Final residual = 0.000755136, No Iterations 2
time step continuity errors : sum local = 0.00170291, global = 0.000307151, cumulative = 0.0121917
smoothSolver:  Solving for omega, Initial residual = 0.000834555, Final residual = 5.84261e-05, No Iterations 4
smoothSolver:  Solving for k, Initial residual = 0.00802606, Final residual = 0.000799029, No Iterations 5
ExecutionTime = 1.17 s  ClockTime = 2 s

scalarTransport execute: age
smoothSolver:  Solving for age, Initial residual = 0.0108596, Final residual = 0.00097944, No Iterations 11

Time = 79

smoothSolver:  Solving for Ux, Initial residual = 0.00807485, Final residual = 0.000784766, No Iterations 5
smoothSolver:  Solving for Uy, Initial residual = 0.00602144, Final residual = 0.000394143, No Iterations 6
GAMG:  Solving for p, Initial residual = 0.00936787, Final residual = 0.000731503, No Iterations 2
time step continuity errors : sum local = 0.0016406, global = 0.000311721, cumulative = 0.0125034
smoothSolver:  Solving for omega, Initial residual = 0.00082673, Final residual = 5.72997e-05, No Iterations 4
smoothSolver:  Solving for k, Initial residual = 0.00780636, Final residual = 0.000767208, No Iterations 5
ExecutionTime = 1.19 s  ClockTime = 2 s

scalarTransport execute: age
smoothSolver:  Solving for age, Initial residual = 0.0102705, Final residual = 0.000935145, No Iterations 11

Time = 80

smoothSolver:  Solving for Ux, Initial residual = 0.00766867, Final residual = 0.000736024, No Iterations 5
smoothSolver:  Solving for Uy, Initial residual = 0.00592532, Final residual = 0.000588815, No Iterations 5
GAMG:  Solving for p, Initial residual = 0.00933602, Final residual = 0.000712611, No Iterations 2
time step continuity errors : sum local = 0.00159256, global = 0.000314711, cumulative = 0.0128181
smoothSolver:  Solving for omega, Initial residual = 0.000817206, Final residual = 5.60723e-05, No Iterations 4
smoothSolver:  Solving for k, Initial residual = 0.00759211, Final residual = 0.000735828, No Iterations 5
ExecutionTime = 1.2 s  ClockTime = 2 s

scalarTransport execute: age
smoothSolver:  Solving for age, Initial residual = 0.00976167, Final residual = 0.00090094, No Iterations 11

Time = 81

smoothSolver:  Solving for Ux, Initial residual = 0.00722225, Final residual = 0.000683684, No Iterations 5
smoothSolver:  Solving for Uy, Initial residual = 0.00587652, Final residual = 0.000579019, No Iterations 5
GAMG:  Solving for p, Initial residual = 0.00919585, Final residual = 0.000686947, No Iterations 2
time step continuity errors : sum local = 0.00152951, global = 0.000315116, cumulative = 0.0131333
smoothSolver:  Solving for omega, Initial residual = 0.000802424, Final residual = 5.46648e-05, No Iterations 4
smoothSolver:  Solving for k, Initial residual = 0.00737284, Final residual = 0.000704578, No Iterations 5
ExecutionTime = 1.21 s  ClockTime = 2 s

scalarTransport execute: age
smoothSolver:  Solving for age, Initial residual = 0.00931123, Final residual = 0.000872912, No Iterations 11

Time = 82

smoothSolver:  Solving for Ux, Initial residual = 0.00681046, Final residual = 0.000635328, No Iterations 5
smoothSolver:  Solving for Uy, Initial residual = 0.00577274, Final residual = 0.000561166, No Iterations 5
GAMG:  Solving for p, Initial residual = 0.00906824, Final residual = 0.000675986, No Iterations 2
time step continuity errors : sum local = 0.00149826, global = 0.000316581, cumulative = 0.0134498
smoothSolver:  Solving for omega, Initial residual = 0.00079173, Final residual = 5.32822e-05, No Iterations 4
smoothSolver:  Solving for k, Initial residual = 0.00714828, Final residual = 0.000673418, No Iterations 5
ExecutionTime = 1.21 s  ClockTime = 2 s

scalarTransport execute: age
smoothSolver:  Solving for age, Initial residual = 0.00889816, Final residual = 0.000842992, No Iterations 11

Time = 83

smoothSolver:  Solving for Ux, Initial residual = 0.00641184, Final residual = 0.000588585, No Iterations 5
smoothSolver:  Solving for Uy, Initial residual = 0.00562224, Final residual = 0.000539366, No Iterations 5
GAMG:  Solving for p, Initial residual = 0.00889772, Final residual = 0.000675437, No Iterations 2
time step continuity errors : sum local = 0.00148811, global = 0.000318106, cumulative = 0.0137679
smoothSolver:  Solving for omega, Initial residual = 0.000777093, Final residual = 5.17959e-05, No Iterations 4
smoothSolver:  Solving for k, Initial residual = 0.00690943, Final residual = 0.000642471, No Iterations 5
ExecutionTime = 1.24 s  ClockTime = 2 s

scalarTransport execute: age
smoothSolver:  Solving for age, Initial residual = 0.00853016, Final residual = 0.000812281, No Iterations 11

Time = 84

smoothSolver:  Solving for Ux, Initial residual = 0.0060264, Final residual = 0.000544013, No Iterations 5
smoothSolver:  Solving for Uy, Initial residual = 0.00546097, Final residual = 0.000515351, No Iterations 5
GAMG:  Solving for p, Initial residual = 0.0087642, Final residual = 0.000665098, No Iterations 2
time step continuity errors : sum local = 0.00145575, global = 0.000315043, cumulative = 0.014083
smoothSolver:  Solving for omega, Initial residual = 0.000760564, Final residual = 5.02902e-05, No Iterations 4
smoothSolver:  Solving for k, Initial residual = 0.0066561, Final residual = 0.000611874, No Iterations 5
ExecutionTime = 1.25 s  ClockTime = 2 s

scalarTransport execute: age
smoothSolver:  Solving for age, Initial residual = 0.00814738, Final residual = 0.000785105, No Iterations 11

Time = 85

smoothSolver:  Solving for Ux, Initial residual = 0.00565984, Final residual = 0.000501787, No Iterations 5
smoothSolver:  Solving for Uy, Initial residual = 0.00529547, Final residual = 0.000491249, No Iterations 5
GAMG:  Solving for p, Initial residual = 0.00859082, Final residual = 0.000645622, No Iterations 2
time step continuity errors : sum local = 0.00140207, global = 0.000308791, cumulative = 0.0143918
smoothSolver:  Solving for omega, Initial residual = 0.000742756, Final residual = 4.87003e-05, No Iterations 4
smoothSolver:  Solving for k, Initial residual = 0.00638973, Final residual = 0.000581817, No Iterations 5
ExecutionTime = 1.26 s  ClockTime = 2 s

scalarTransport execute: age
smoothSolver:  Solving for age, Initial residual = 0.00782046, Final residual = 0.000763833, No Iterations 11

Time = 86

smoothSolver:  Solving for Ux, Initial residual = 0.00530896, Final residual = 0.00046295, No Iterations 5
smoothSolver:  Solving for Uy, Initial residual = 0.00511917, Final residual = 0.000466848, No Iterations 5
GAMG:  Solving for p, Initial residual = 0.0083868, Final residual = 0.00061935, No Iterations 2
time step continuity errors : sum local = 0.00133361, global = 0.000300416, cumulative = 0.0146922
smoothSolver:  Solving for omega, Initial residual = 0.000723851, Final residual = 4.70094e-05, No Iterations 4
smoothSolver:  Solving for k, Initial residual = 0.00610878, Final residual = 0.000552371, No Iterations 5
ExecutionTime = 1.27 s  ClockTime = 2 s

scalarTransport execute: age
smoothSolver:  Solving for age, Initial residual = 0.00761734, Final residual = 0.00074962, No Iterations 11

Time = 87

smoothSolver:  Solving for Ux, Initial residual = 0.00498367, Final residual = 0.000426945, No Iterations 5
smoothSolver:  Solving for Uy, Initial residual = 0.00493155, Final residual = 0.000442144, No Iterations 5
GAMG:  Solving for p, Initial residual = 0.00818671, Final residual = 0.000588047, No Iterations 2
time step continuity errors : sum local = 0.0012552, global = 0.000290547, cumulative = 0.0149827
smoothSolver:  Solving for omega, Initial residual = 0.000704791, Final residual = 4.52427e-05, No Iterations 4
smoothSolver:  Solving for k, Initial residual = 0.0058164, Final residual = 0.000523658, No Iterations 5
ExecutionTime = 1.29 s  ClockTime = 2 s

scalarTransport execute: age
smoothSolver:  Solving for age, Initial residual = 0.0075229, Final residual = 0.000742133, No Iterations 11

Time = 88

smoothSolver:  Solving for Ux, Initial residual = 0.00467096, Final residual = 0.000393273, No Iterations 5
smoothSolver:  Solving for Uy, Initial residual = 0.00473694, Final residual = 0.000417608, No Iterations 5
GAMG:  Solving for p, Initial residual = 0.00798157, Final residual = 0.000553921, No Iterations 2
time step continuity errors : sum local = 0.00117187, global = 0.000279616, cumulative = 0.0152624
smoothSolver:  Solving for omega, Initial residual = 0.000687541, Final residual = 4.34382e-05, No Iterations 4
smoothSolver:  Solving for k, Initial residual = 0.00551742, Final residual = 0.000495827, No Iterations 5
ExecutionTime = 1.3 s  ClockTime = 2 s

scalarTransport execute: age
smoothSolver:  Solving for age, Initial residual = 0.00736261, Final residual = 0.00064839, No Iterations 12

Time = 89

smoothSolver:  Solving for Ux, Initial residual = 0.0043711, Final residual = 0.000361409, No Iterations 5
smoothSolver:  Solving for Uy, Initial residual = 0.00454643, Final residual = 0.000394121, No Iterations 5
GAMG:  Solving for p, Initial residual = 0.00774209, Final residual = 0.000514374, No Iterations 2
time step continuity errors : sum local = 0.00107779, global = 0.000269123, cumulative = 0.0155315
smoothSolver:  Solving for omega, Initial residual = 0.000668894, Final residual = 4.16072e-05, No Iterations 4
smoothSolver:  Solving for k, Initial residual = 0.00521275, Final residual = 0.000469003, No Iterations 5
ExecutionTime = 1.31 s  ClockTime = 2 s

scalarTransport execute: age
smoothSolver:  Solving for age, Initial residual = 0.00713835, Final residual = 0.000653061, No Iterations 12

Time = 90

smoothSolver:  Solving for Ux, Initial residual = 0.00408271, Final residual = 0.000331884, No Iterations 5
smoothSolver:  Solving for Uy, Initial residual = 0.00436381, Final residual = 0.000373036, No Iterations 5
GAMG:  Solving for p, Initial residual = 0.00749149, Final residual = 0.000472794, No Iterations 2
time step continuity errors : sum local = 0.000981556, global = 0.000260586, cumulative = 0.0157921
smoothSolver:  Solving for omega, Initial residual = 0.000649015, Final residual = 3.97635e-05, No Iterations 4
smoothSolver:  Solving for k, Initial residual = 0.00490791, Final residual = 0.000443291, No Iterations 5
ExecutionTime = 1.32 s  ClockTime = 2 s

scalarTransport execute: age
smoothSolver:  Solving for age, Initial residual = 0.0069024, Final residual = 0.000655678, No Iterations 12

Time = 91

smoothSolver:  Solving for Ux, Initial residual = 0.00380798, Final residual = 0.000304566, No Iterations 5
smoothSolver:  Solving for Uy, Initial residual = 0.00418445, Final residual = 0.000353, No Iterations 5
GAMG:  Solving for p, Initial residual = 0.00721589, Final residual = 0.000435584, No Iterations 2
time step continuity errors : sum local = 0.000896151, global = 0.000253082, cumulative = 0.0160452
smoothSolver:  Solving for omega, Initial residual = 0.000629004, Final residual = 3.79293e-05, No Iterations 4
smoothSolver:  Solving for k, Initial residual = 0.00460654, Final residual = 0.000418643, No Iterations 5
ExecutionTime = 1.34 s  ClockTime = 2 s

scalarTransport execute: age
smoothSolver:  Solving for age, Initial residual = 0.00666637, Final residual = 0.000660889, No Iterations 12

Time = 92

smoothSolver:  Solving for Ux, Initial residual = 0.00355234, Final residual = 0.000280466, No Iterations 5
smoothSolver:  Solving for Uy, Initial residual = 0.00400383, Final residual = 0.000332762, No Iterations 5
GAMG:  Solving for p, Initial residual = 0.00692658, Final residual = 0.000408627, No Iterations 2
time step continuity errors : sum local = 0.00083379, global = 0.000245397, cumulative = 0.0162905
smoothSolver:  Solving for omega, Initial residual = 0.000606697, Final residual = 3.61188e-05, No Iterations 4
smoothSolver:  Solving for k, Initial residual = 0.00431294, Final residual = 0.000395181, No Iterations 5
ExecutionTime = 1.35 s  ClockTime = 2 s

scalarTransport execute: age
smoothSolver:  Solving for age, Initial residual = 0.00640064, Final residual = 0.000584902, No Iterations 13

Time = 93

smoothSolver:  Solving for Ux, Initial residual = 0.00332401, Final residual = 0.000260402, No Iterations 5
smoothSolver:  Solving for Uy, Initial residual = 0.00381884, Final residual = 0.000311951, No Iterations 5
GAMG:  Solving for p, Initial residual = 0.00664797, Final residual = 0.000398772, No Iterations 2
time step continuity errors : sum local = 0.00080786, global = 0.000238256, cumulative = 0.0165288
smoothSolver:  Solving for omega, Initial residual = 0.000583917, Final residual = 3.43316e-05, No Iterations 4
smoothSolver:  Solving for k, Initial residual = 0.00402977, Final residual = 0.000372853, No Iterations 5
ExecutionTime = 1.36 s  ClockTime = 2 s

scalarTransport execute: age
smoothSolver:  Solving for age, Initial residual = 0.00612354, Final residual = 0.000585092, No Iterations 13

Time = 94

smoothSolver:  Solving for Ux, Initial residual = 0.00311797, Final residual = 0.00024288, No Iterations 5
smoothSolver:  Solving for Uy, Initial residual = 0.00362779, Final residual = 0.000290413, No Iterations 5
GAMG:  Solving for p, Initial residual = 0.00640368, Final residual = 0.000392699, No Iterations 2
time step continuity errors : sum local = 0.000790005, global = 0.000231374, cumulative = 0.0167602
smoothSolver:  Solving for omega, Initial residual = 0.000560113, Final residual = 3.26815e-05, No Iterations 4
smoothSolver:  Solving for k, Initial residual = 0.00375922, Final residual = 0.000351705, No Iterations 5
ExecutionTime = 1.37 s  ClockTime = 2 s

scalarTransport execute: age
smoothSolver:  Solving for age, Initial residual = 0.00587951, Final residual = 0.000582095, No Iterations 13

Time = 95

smoothSolver:  Solving for Ux, Initial residual = 0.00293553, Final residual = 0.000227126, No Iterations 5
smoothSolver:  Solving for Uy, Initial residual = 0.00342569, Final residual = 0.000268556, No Iterations 5
GAMG:  Solving for p, Initial residual = 0.0062961, Final residual = 0.00038645, No Iterations 2
time step continuity errors : sum local = 0.000772335, global = 0.000224662, cumulative = 0.0169848
smoothSolver:  Solving for omega, Initial residual = 0.000538551, Final residual = 3.11939e-05, No Iterations 4
smoothSolver:  Solving for k, Initial residual = 0.00350621, Final residual = 0.000331841, No Iterations 5
ExecutionTime = 1.39 s  ClockTime = 2 s

scalarTransport execute: age
smoothSolver:  Solving for age, Initial residual = 0.0056459, Final residual = 0.000506614, No Iterations 14

Time = 96

smoothSolver:  Solving for Ux, Initial residual = 0.00276578, Final residual = 0.000213222, No Iterations 5
[...]

Time = 639

smoothSolver:  Solving for Ux, Initial residual = 5.35065e-07, Final residual = 4.1293e-08, No Iterations 5
smoothSolver:  Solving for Uy, Initial residual = 4.28978e-07, Final residual = 3.7749e-08, No Iterations 5
GAMG:  Solving for p, Initial residual = 1.38677e-06, Final residual = 9.84159e-08, No Iterations 2
time step continuity errors : sum local = 1.97308e-07, global = 2.79692e-08, cumulative = 0.0237592
smoothSolver:  Solving for omega, Initial residual = 5.49974e-08, Final residual = 7.25946e-09, No Iterations 3
smoothSolver:  Solving for k, Initial residual = 1.34146e-07, Final residual = 8.79032e-09, No Iterations 5
ExecutionTime = 8.65 s  ClockTime = 9 s

scalarTransport execute: age
smoothSolver:  Solving for age, Initial residual = 0.000319974, Final residual = 3.14205e-05, No Iterations 14

Time = 640

smoothSolver:  Solving for Ux, Initial residual = 5.27445e-07, Final residual = 4.08061e-08, No Iterations 5
smoothSolver:  Solving for Uy, Initial residual = 4.25273e-07, Final residual = 3.74e-08, No Iterations 5
GAMG:  Solving for p, Initial residual = 1.38773e-06, Final residual = 1.11105e-07, No Iterations 2
time step continuity errors : sum local = 2.22747e-07, global = 3.22821e-08, cumulative = 0.0237592
smoothSolver:  Solving for omega, Initial residual = 5.5296e-08, Final residual = 7.14753e-09, No Iterations 3
smoothSolver:  Solving for k, Initial residual = 1.32577e-07, Final residual = 8.65692e-09, No Iterations 5
ExecutionTime = 8.66 s  ClockTime = 9 s

scalarTransport execute: age
smoothSolver:  Solving for age, Initial residual = 0.000319424, Final residual = 3.13672e-05, No Iterations 14

Time = 641

smoothSolver:  Solving for Ux, Initial residual = 5.19778e-07, Final residual = 4.02261e-08, No Iterations 5
smoothSolver:  Solving for Uy, Initial residual = 4.19162e-07, Final residual = 3.68684e-08, No Iterations 5
GAMG:  Solving for p, Initial residual = 1.40455e-06, Final residual = 1.02631e-07, No Iterations 2
time step continuity errors : sum local = 2.05758e-07, global = 3.1014e-08, cumulative = 0.0237592
smoothSolver:  Solving for omega, Initial residual = 5.44284e-08, Final residual = 7.0613e-09, No Iterations 3
smoothSolver:  Solving for k, Initial residual = 1.29519e-07, Final residual = 8.51623e-09, No Iterations 5
ExecutionTime = 8.69 s  ClockTime = 9 s

scalarTransport execute: age
smoothSolver:  Solving for age, Initial residual = 0.000318853, Final residual = 3.13117e-05, No Iterations 14

Time = 642

smoothSolver:  Solving for Ux, Initial residual = 5.11341e-07, Final residual = 3.93896e-08, No Iterations 5
smoothSolver:  Solving for Uy, Initial residual = 4.08908e-07, Final residual = 3.57865e-08, No Iterations 5
GAMG:  Solving for p, Initial residual = 1.33197e-06, Final residual = 9.32792e-08, No Iterations 2
time step continuity errors : sum local = 1.8701e-07, global = 2.74804e-08, cumulative = 0.0237593
smoothSolver:  Solving for omega, Initial residual = 5.28371e-08, Final residual = 6.94512e-09, No Iterations 3
smoothSolver:  Solving for k, Initial residual = 1.28084e-07, Final residual = 8.39775e-09, No Iterations 5
ExecutionTime = 8.7 s  ClockTime = 9 s

scalarTransport execute: age
smoothSolver:  Solving for age, Initial residual = 0.000318293, Final residual = 3.12571e-05, No Iterations 14

Time = 643

smoothSolver:  Solving for Ux, Initial residual = 5.03774e-07, Final residual = 3.88806e-08, No Iterations 5
smoothSolver:  Solving for Uy, Initial residual = 4.03942e-07, Final residual = 3.55434e-08, No Iterations 5
GAMG:  Solving for p, Initial residual = 1.30584e-06, Final residual = 9.26676e-08, No Iterations 2
time step continuity errors : sum local = 1.85784e-07, global = 2.63411e-08, cumulative = 0.0237593
smoothSolver:  Solving for omega, Initial residual = 5.1796e-08, Final residual = 6.83804e-09, No Iterations 3
smoothSolver:  Solving for k, Initial residual = 1.26313e-07, Final residual = 8.27912e-09, No Iterations 5
ExecutionTime = 8.71 s  ClockTime = 9 s

scalarTransport execute: age
smoothSolver:  Solving for age, Initial residual = 0.000317742, Final residual = 3.12034e-05, No Iterations 14

Time = 644

smoothSolver:  Solving for Ux, Initial residual = 4.96599e-07, Final residual = 3.84231e-08, No Iterations 5
smoothSolver:  Solving for Uy, Initial residual = 4.0041e-07, Final residual = 3.52112e-08, No Iterations 5
GAMG:  Solving for p, Initial residual = 1.30665e-06, Final residual = 1.04618e-07, No Iterations 2
time step continuity errors : sum local = 2.09742e-07, global = 3.03974e-08, cumulative = 0.0237593
smoothSolver:  Solving for omega, Initial residual = 5.20784e-08, Final residual = 6.73231e-09, No Iterations 3
smoothSolver:  Solving for k, Initial residual = 1.24856e-07, Final residual = 8.15501e-09, No Iterations 5
ExecutionTime = 8.73 s  ClockTime = 9 s

scalarTransport execute: age
smoothSolver:  Solving for age, Initial residual = 0.000317201, Final residual = 3.11506e-05, No Iterations 14

Time = 645

smoothSolver:  Solving for Ux, Initial residual = 4.89377e-07, Final residual = 3.78777e-08, No Iterations 5
smoothSolver:  Solving for Uy, Initial residual = 3.94613e-07, Final residual = 3.4707e-08, No Iterations 5
GAMG:  Solving for p, Initial residual = 1.32243e-06, Final residual = 9.66276e-08, No Iterations 2
time step continuity errors : sum local = 1.93723e-07, global = 2.92038e-08, cumulative = 0.0237594
smoothSolver:  Solving for omega, Initial residual = 5.12541e-08, Final residual = 6.65074e-09, No Iterations 3
smoothSolver:  Solving for k, Initial residual = 1.21992e-07, Final residual = 8.02347e-09, No Iterations 5
ExecutionTime = 8.74 s  ClockTime = 9 s

scalarTransport execute: age
smoothSolver:  Solving for age, Initial residual = 0.000316639, Final residual = 3.10956e-05, No Iterations 14

Time = 646

smoothSolver:  Solving for Ux, Initial residual = 4.81436e-07, Final residual = 3.70914e-08, No Iterations 5
smoothSolver:  Solving for Uy, Initial residual = 3.84914e-07, Final residual = 3.36846e-08, No Iterations 5
GAMG:  Solving for p, Initial residual = 1.25395e-06, Final residual = 8.78105e-08, No Iterations 2
time step continuity errors : sum local = 1.76046e-07, global = 2.58724e-08, cumulative = 0.0237594
smoothSolver:  Solving for omega, Initial residual = 4.97571e-08, Final residual = 6.54098e-09, No Iterations 3
smoothSolver:  Solving for k, Initial residual = 1.20654e-07, Final residual = 7.91268e-09, No Iterations 5
ExecutionTime = 8.75 s  ClockTime = 9 s

scalarTransport execute: age
smoothSolver:  Solving for age, Initial residual = 0.000316087, Final residual = 3.10415e-05, No Iterations 14

Time = 647

smoothSolver:  Solving for Ux, Initial residual = 4.74313e-07, Final residual = 3.66127e-08, No Iterations 5
smoothSolver:  Solving for Uy, Initial residual = 3.80209e-07, Final residual = 3.34533e-08, No Iterations 5
GAMG:  Solving for p, Initial residual = 1.22924e-06, Final residual = 8.72238e-08, No Iterations 2
time step continuity errors : sum local = 1.7487e-07, global = 2.4793e-08, cumulative = 0.0237594
smoothSolver:  Solving for omega, Initial residual = 4.87724e-08, Final residual = 6.43978e-09, No Iterations 3
smoothSolver:  Solving for k, Initial residual = 1.18996e-07, Final residual = 7.80152e-09, No Iterations 5
ExecutionTime = 8.77 s  ClockTime = 9 s

scalarTransport execute: age
smoothSolver:  Solving for age, Initial residual = 0.000315544, Final residual = 3.09881e-05, No Iterations 14

Time = 648

smoothSolver:  Solving for Ux, Initial residual = 4.67554e-07, Final residual = 3.61821e-08, No Iterations 5
smoothSolver:  Solving for Uy, Initial residual = 3.76859e-07, Final residual = 3.31387e-08, No Iterations 5
GAMG:  Solving for p, Initial residual = 1.22992e-06, Final residual = 9.84817e-08, No Iterations 2
time step continuity errors : sum local = 1.9744e-07, global = 2.86072e-08, cumulative = 0.0237594
smoothSolver:  Solving for omega, Initial residual = 4.9039e-08, Final residual = 6.33991e-09, No Iterations 3
smoothSolver:  Solving for k, Initial residual = 1.17631e-07, Final residual = 7.68506e-09, No Iterations 5
ExecutionTime = 8.78 s  ClockTime = 9 s

scalarTransport execute: age
smoothSolver:  Solving for age, Initial residual = 0.000315009, Final residual = 3.09355e-05, No Iterations 14

Time = 649

smoothSolver:  Solving for Ux, Initial residual = 4.60749e-07, Final residual = 3.56684e-08, No Iterations 5
smoothSolver:  Solving for Uy, Initial residual = 3.71387e-07, Final residual = 3.2663e-08, No Iterations 5
GAMG:  Solving for p, Initial residual = 1.2448e-06, Final residual = 9.09575e-08, No Iterations 2
time step continuity errors : sum local = 1.82356e-07, global = 2.74888e-08, cumulative = 0.0237595
smoothSolver:  Solving for omega, Initial residual = 4.82567e-08, Final residual = 6.26278e-09, No Iterations 3
smoothSolver:  Solving for k, Initial residual = 1.14937e-07, Final residual = 7.56111e-09, No Iterations 5
ExecutionTime = 8.79 s  ClockTime = 9 s

scalarTransport execute: age
smoothSolver:  Solving for age, Initial residual = 0.000314454, Final residual = 3.08809e-05, No Iterations 14

Time = 650

smoothSolver:  Solving for Ux, Initial residual = 4.5327e-07, Final residual = 3.49275e-08, No Iterations 5
smoothSolver:  Solving for Uy, Initial residual = 3.6225e-07, Final residual = 3.17003e-08, No Iterations 5
GAMG:  Solving for p, Initial residual = 1.18024e-06, Final residual = 8.26507e-08, No Iterations 2
time step continuity errors : sum local = 1.65702e-07, global = 2.43511e-08, cumulative = 0.0237595
smoothSolver:  Solving for omega, Initial residual = 4.68476e-08, Final residual = 6.15916e-09, No Iterations 3
smoothSolver:  Solving for k, Initial residual = 1.13677e-07, Final residual = 7.45667e-09, No Iterations 5
ExecutionTime = 8.81 s  ClockTime = 9 s

scalarTransport execute: age
smoothSolver:  Solving for age, Initial residual = 0.00031391, Final residual = 3.08272e-05, No Iterations 14

Time = 651

smoothSolver:  Solving for Ux, Initial residual = 4.4656e-07, Final residual = 3.44762e-08, No Iterations 5
smoothSolver:  Solving for Uy, Initial residual = 3.57815e-07, Final residual = 3.14825e-08, No Iterations 5
GAMG:  Solving for p, Initial residual = 1.15695e-06, Final residual = 8.20887e-08, No Iterations 2
time step continuity errors : sum local = 1.64575e-07, global = 2.33287e-08, cumulative = 0.0237595
smoothSolver:  Solving for omega, Initial residual = 4.59161e-08, Final residual = 6.0636e-09, No Iterations 3
smoothSolver:  Solving for k, Initial residual = 1.12113e-07, Final residual = 7.35179e-09, No Iterations 5
ExecutionTime = 8.82 s  ClockTime = 9 s

scalarTransport execute: age
smoothSolver:  Solving for age, Initial residual = 0.000313373, Final residual = 3.07742e-05, No Iterations 14

Time = 652

smoothSolver:  Solving for Ux, Initial residual = 4.40189e-07, Final residual = 3.407e-08, No Iterations 5
smoothSolver:  Solving for Uy, Initial residual = 3.54663e-07, Final residual = 3.11869e-08, No Iterations 5
GAMG:  Solving for p, Initial residual = 1.15754e-06, Final residual = 9.26968e-08, No Iterations 2
time step continuity errors : sum local = 1.85843e-07, global = 2.69158e-08, cumulative = 0.0237595
smoothSolver:  Solving for omega, Initial residual = 4.61684e-08, Final residual = 5.9694e-09, No Iterations 3
smoothSolver:  Solving for k, Initial residual = 1.10826e-07, Final residual = 7.24189e-09, No Iterations 5
ExecutionTime = 8.83 s  ClockTime = 9 s

scalarTransport execute: age
smoothSolver:  Solving for age, Initial residual = 0.000312845, Final residual = 3.0722e-05, No Iterations 14

Time = 653

smoothSolver:  Solving for Ux, Initial residual = 4.33777e-07, Final residual = 3.35857e-08, No Iterations 5
smoothSolver:  Solving for Uy, Initial residual = 3.49522e-07, Final residual = 3.07406e-08, No Iterations 5
GAMG:  Solving for p, Initial residual = 1.17163e-06, Final residual = 8.56163e-08, No Iterations 2
time step continuity errors : sum local = 1.71648e-07, global = 2.58695e-08, cumulative = 0.0237596
smoothSolver:  Solving for omega, Initial residual = 4.54276e-08, Final residual = 5.89664e-09, No Iterations 3
smoothSolver:  Solving for k, Initial residual = 1.08285e-07, Final residual = 7.12464e-09, No Iterations 5
ExecutionTime = 8.85 s  ClockTime = 9 s

scalarTransport execute: age
smoothSolver:  Solving for age, Initial residual = 0.000312298, Final residual = 3.06681e-05, No Iterations 14

Time = 654

smoothSolver:  Solving for Ux, Initial residual = 4.26723e-07, Final residual = 3.28861e-08, No Iterations 5
smoothSolver:  Solving for Uy, Initial residual = 3.40943e-07, Final residual = 2.98366e-08, No Iterations 5
GAMG:  Solving for p, Initial residual = 1.11083e-06, Final residual = 7.77968e-08, No Iterations 2
time step continuity errors : sum local = 1.55971e-07, global = 2.29166e-08, cumulative = 0.0237596
smoothSolver:  Solving for omega, Initial residual = 4.41016e-08, Final residual = 5.79897e-09, No Iterations 3
smoothSolver:  Solving for k, Initial residual = 1.07092e-07, Final residual = 7.02575e-09, No Iterations 5
ExecutionTime = 8.86 s  ClockTime = 9 s

scalarTransport execute: age
smoothSolver:  Solving for age, Initial residual = 0.00031176, Final residual = 3.0615e-05, No Iterations 14

Time = 655

smoothSolver:  Solving for Ux, Initial residual = 4.204e-07, Final residual = 3.24601e-08, No Iterations 5
smoothSolver:  Solving for Uy, Initial residual = 3.36773e-07, Final residual = 2.96329e-08, No Iterations 5
GAMG:  Solving for p, Initial residual = 1.08892e-06, Final residual = 7.72642e-08, No Iterations 2
time step continuity errors : sum local = 1.54903e-07, global = 2.19494e-08, cumulative = 0.0237596
smoothSolver:  Solving for omega, Initial residual = 4.32219e-08, Final residual = 5.70891e-09, No Iterations 3
smoothSolver:  Solving for k, Initial residual = 1.05613e-07, Final residual = 6.9265e-09, No Iterations 5
ExecutionTime = 8.87 s  ClockTime = 9 s

scalarTransport execute: age
smoothSolver:  Solving for age, Initial residual = 0.00031123, Final residual = 3.05627e-05, No Iterations 14

Time = 656

smoothSolver:  Solving for Ux, Initial residual = 4.14395e-07, Final residual = 3.20769e-08, No Iterations 5
smoothSolver:  Solving for Uy, Initial residual = 3.33819e-07, Final residual = 2.93561e-08, No Iterations 5
GAMG:  Solving for p, Initial residual = 1.08945e-06, Final residual = 8.72578e-08, No Iterations 2
time step continuity errors : sum local = 1.74939e-07, global = 2.53221e-08, cumulative = 0.0237596
smoothSolver:  Solving for omega, Initial residual = 4.34609e-08, Final residual = 5.62016e-09, No Iterations 3
smoothSolver:  Solving for k, Initial residual = 1.04396e-07, Final residual = 6.82256e-09, No Iterations 5
ExecutionTime = 8.89 s  ClockTime = 9 s

scalarTransport execute: age
smoothSolver:  Solving for age, Initial residual = 0.000310707, Final residual = 3.05113e-05, No Iterations 14

Time = 657

smoothSolver:  Solving for Ux, Initial residual = 4.08353e-07, Final residual = 3.16202e-08, No Iterations 5
smoothSolver:  Solving for Uy, Initial residual = 3.28997e-07, Final residual = 2.89379e-08, No Iterations 5
GAMG:  Solving for p, Initial residual = 1.10277e-06, Final residual = 8.05947e-08, No Iterations 2
time step continuity errors : sum local = 1.6158e-07, global = 2.43433e-08, cumulative = 0.0237597
smoothSolver:  Solving for omega, Initial residual = 4.27611e-08, Final residual = 9.90791e-09, No Iterations 2
smoothSolver:  Solving for k, Initial residual = 1.02344e-07, Final residual = 6.72492e-09, No Iterations 5
ExecutionTime = 8.9 s  ClockTime = 9 s

scalarTransport execute: age
smoothSolver:  Solving for age, Initial residual = 0.000310167, Final residual = 3.04582e-05, No Iterations 14

Time = 658

smoothSolver:  Solving for Ux, Initial residual = 4.01549e-07, Final residual = 3.0942e-08, No Iterations 5
smoothSolver:  Solving for Uy, Initial residual = 3.20933e-07, Final residual = 2.80867e-08, No Iterations 5
GAMG:  Solving for p, Initial residual = 1.046e-06, Final residual = 7.32155e-08, No Iterations 2
time step continuity errors : sum local = 1.46786e-07, global = 2.15603e-08, cumulative = 0.0237597
smoothSolver:  Solving for omega, Initial residual = 4.3169e-08, Final residual = 5.71507e-09, No Iterations 3
smoothSolver:  Solving for k, Initial residual = 1.01239e-07, Final residual = 6.64061e-09, No Iterations 5
ExecutionTime = 8.91 s  ClockTime = 9 s

scalarTransport execute: age
smoothSolver:  Solving for age, Initial residual = 0.000309637, Final residual = 3.0406e-05, No Iterations 14

Time = 659

smoothSolver:  Solving for Ux, Initial residual = 3.95618e-07, Final residual = 3.05435e-08, No Iterations 5
smoothSolver:  Solving for Uy, Initial residual = 3.16966e-07, Final residual = 2.78932e-08, No Iterations 5
GAMG:  Solving for p, Initial residual = 1.02492e-06, Final residual = 7.27239e-08, No Iterations 2
time step continuity errors : sum local = 1.45801e-07, global = 2.06416e-08, cumulative = 0.0237597
smoothSolver:  Solving for omega, Initial residual = 4.17048e-08, Final residual = 9.89915e-09, No Iterations 2
smoothSolver:  Solving for k, Initial residual = 9.99781e-08, Final residual = 6.55169e-09, No Iterations 5
ExecutionTime = 8.92 s  ClockTime = 9 s

scalarTransport execute: age
smoothSolver:  Solving for age, Initial residual = 0.000309113, Final residual = 3.03545e-05, No Iterations 14

Time = 660

smoothSolver:  Solving for Ux, Initial residual = 3.89803e-07, Final residual = 3.01645e-08, No Iterations 5
smoothSolver:  Solving for Uy, Initial residual = 3.14154e-07, Final residual = 2.76292e-08, No Iterations 5
GAMG:  Solving for p, Initial residual = 1.02552e-06, Final residual = 8.2111e-08, No Iterations 2
time step continuity errors : sum local = 1.64621e-07, global = 2.38089e-08, cumulative = 0.0237597
smoothSolver:  Solving for omega, Initial residual = 4.32534e-08, Final residual = 5.67652e-09, No Iterations 3
smoothSolver:  Solving for k, Initial residual = 9.87415e-08, Final residual = 6.45639e-09, No Iterations 5
ExecutionTime = 8.94 s  ClockTime = 9 s

scalarTransport execute: age
smoothSolver:  Solving for age, Initial residual = 0.000308597, Final residual = 3.03039e-05, No Iterations 14

Time = 661

smoothSolver:  Solving for Ux, Initial residual = 3.84137e-07, Final residual = 2.97371e-08, No Iterations 5
smoothSolver:  Solving for Uy, Initial residual = 3.09569e-07, Final residual = 2.72332e-08, No Iterations 5
GAMG:  Solving for p, Initial residual = 1.03768e-06, Final residual = 7.58526e-08, No Iterations 2
time step continuity errors : sum local = 1.52074e-07, global = 2.28931e-08, cumulative = 0.0237598
smoothSolver:  Solving for omega, Initial residual = 4.17634e-08, Final residual = 9.79976e-09, No Iterations 2
smoothSolver:  Solving for k, Initial residual = 9.6552e-08, Final residual = 6.35216e-09, No Iterations 5
ExecutionTime = 8.95 s  ClockTime = 9 s

scalarTransport execute: age
smoothSolver:  Solving for age, Initial residual = 0.000308064, Final residual = 3.02517e-05, No Iterations 14

Time = 662

smoothSolver:  Solving for Ux, Initial residual = 3.77723e-07, Final residual = 2.9098e-08, No Iterations 5
smoothSolver:  Solving for Uy, Initial residual = 3.01971e-07, Final residual = 2.64308e-08, No Iterations 5
GAMG:  Solving for p, Initial residual = 9.83998e-07, Final residual = 6.89214e-08, No Iterations 2
time step continuity errors : sum local = 1.38177e-07, global = 2.02831e-08, cumulative = 0.0237598
smoothSolver:  Solving for omega, Initial residual = 4.17293e-08, Final residual = 9.96212e-09, No Iterations 2
smoothSolver:  Solving for k, Initial residual = 9.57063e-08, Final residual = 6.27661e-09, No Iterations 5
ExecutionTime = 8.96 s  ClockTime = 9 s


SIMPLE solution converged in 662 iterations

scalarTransport execute: age
smoothSolver:  Solving for age, Initial residual = 0.00030754, Final residual = 3.02004e-05, No Iterations 14

End

