/*---------------------------------------------------------------------------*\
| =========                 |                                                 |
| \\      /  F ield         | OpenFOAM: The Open Source CFD Toolbox           |
|  \\    /   O peration     | Version:  v2012                                 |
|   \\  /    A nd           | Website:  www.openfoam.com                      |
|    \\/     M anipulation  |                                                 |
\*---------------------------------------------------------------------------*/
Build  : _7bdb509494-20201222 OPENFOAM=2012
Arch   : "LSB;label=32;scalar=64"
Exec   : simpleFoam
Date   : Feb 22 2023
Time   : 19:41:51
Host   : johnsDesktop
PID    : 8984
I/O    : uncollated
Case   : /home/john/of_runs/cases/0_29_6-00380_9
nProcs : 1
trapFpe: Floating point exception trapping enabled (FOAM_SIGFPE).
fileModificationChecking : Monitoring run-time modified files using timeStampMaster (fileModificationSkew 5, maxFileModificationPolls 20)
allowSystemOperations : Allowing user-supplied system call operations

// * * * * * * * * * * * * * * * * * * * * * * * * * * * * * * * * * * * * * //
Create time

Create mesh for time = 0


SIMPLE: convergence criteria
    field p	 tolerance 1e-06
    field U	 tolerance 1e-06
    field "(k|epsilon|omega|f|v2|age)"	 tolerance 1e-05

Reading field p

Reading field U

Reading/calculating face flux field phi

Selecting incompressible transport model Newtonian
Selecting turbulence model type RAS
Selecting RAS turbulence model kOmegaSST
Selecting patchDistMethod meshWave
RAS
{
    RASModel        kOmegaSST;
    turbulence      on;
    printCoeffs     on;
    alphaK1         0.85;
    alphaK2         1;
    alphaOmega1     0.5;
    alphaOmega2     0.856;
    gamma1          0.555556;
    gamma2          0.44;
    beta1           0.075;
    beta2           0.0828;
    betaStar        0.09;
    a1              0.31;
    b1              1;
    c1              10;
    F3              false;
    decayControl    false;
    kInf            0;
    omegaInf        0;
}

No MRF models present

No finite volume options present

Starting time loop

Selecting finite volume options type scalarSemiImplicitSource
    Source: unitySource
    - selecting all cells
    - selected 6084 cell(s) with volume 0.031855
Time = 1

smoothSolver:  Solving for Ux, Initial residual = 0, Final residual = 0, No Iterations 0
smoothSolver:  Solving for Uy, Initial residual = 1, Final residual = 0.0872469, No Iterations 2
GAMG:  Solving for p, Initial residual = 1, Final residual = 0.0712666, No Iterations 7
time step continuity errors : sum local = 0.00447444, global = -0.000979403, cumulative = -0.000979403
smoothSolver:  Solving for omega, Initial residual = 0.287714, Final residual = 0.0121517, No Iterations 3
smoothSolver:  Solving for k, Initial residual = 1, Final residual = 0.0800376, No Iterations 3
ExecutionTime = 0.06 s  ClockTime = 0 s

scalarTransport execute: age
smoothSolver:  Solving for age, Initial residual = 1, Final residual = 0.0913182, No Iterations 4

Time = 2

smoothSolver:  Solving for Ux, Initial residual = 0.564793, Final residual = 0.048688, No Iterations 6
smoothSolver:  Solving for Uy, Initial residual = 0.277767, Final residual = 0.0203884, No Iterations 6
GAMG:  Solving for p, Initial residual = 0.047053, Final residual = 0.001876, No Iterations 4
time step continuity errors : sum local = 0.0217706, global = 0.00349918, cumulative = 0.00251978
smoothSolver:  Solving for omega, Initial residual = 0.262088, Final residual = 0.0255804, No Iterations 3
smoothSolver:  Solving for k, Initial residual = 0.611147, Final residual = 0.0579191, No Iterations 4
ExecutionTime = 0.07 s  ClockTime = 0 s

scalarTransport execute: age
smoothSolver:  Solving for age, Initial residual = 0.594372, Final residual = 0.0593367, No Iterations 4

Time = 3

smoothSolver:  Solving for Ux, Initial residual = 0.218793, Final residual = 0.0146694, No Iterations 6
smoothSolver:  Solving for Uy, Initial residual = 0.095279, Final residual = 0.00854716, No Iterations 5
GAMG:  Solving for p, Initial residual = 0.0539511, Final residual = 0.00439126, No Iterations 3
time step continuity errors : sum local = 0.0209841, global = 0.0023264, cumulative = 0.00484618
smoothSolver:  Solving for omega, Initial residual = 0.25815, Final residual = 0.0252409, No Iterations 4
smoothSolver:  Solving for k, Initial residual = 0.519424, Final residual = 0.0393523, No Iterations 5
ExecutionTime = 0.08 s  ClockTime = 0 s

scalarTransport execute: age
smoothSolver:  Solving for age, Initial residual = 0.407562, Final residual = 0.0372753, No Iterations 5

Time = 4

smoothSolver:  Solving for Ux, Initial residual = 0.108703, Final residual = 0.00798904, No Iterations 4
smoothSolver:  Solving for Uy, Initial residual = 0.048603, Final residual = 0.00353624, No Iterations 5
GAMG:  Solving for p, Initial residual = 0.0778093, Final residual = 0.00347595, No Iterations 3
time step continuity errors : sum local = 0.0091965, global = 0.000717375, cumulative = 0.00556355
smoothSolver:  Solving for omega, Initial residual = 0.144641, Final residual = 0.0101358, No Iterations 5
smoothSolver:  Solving for k, Initial residual = 0.446742, Final residual = 0.0382388, No Iterations 5
ExecutionTime = 0.1 s  ClockTime = 0 s

scalarTransport execute: age
smoothSolver:  Solving for age, Initial residual = 0.321478, Final residual = 0.0272844, No Iterations 3

Time = 5

smoothSolver:  Solving for Ux, Initial residual = 0.0687196, Final residual = 0.00576278, No Iterations 5
smoothSolver:  Solving for Uy, Initial residual = 0.0298499, Final residual = 0.00212851, No Iterations 5
GAMG:  Solving for p, Initial residual = 0.0715251, Final residual = 0.00304543, No Iterations 2
time step continuity errors : sum local = 0.00688839, global = 0.000930007, cumulative = 0.00649356
smoothSolver:  Solving for omega, Initial residual = 0.100527, Final residual = 0.00772099, No Iterations 5
smoothSolver:  Solving for k, Initial residual = 0.357297, Final residual = 0.0330597, No Iterations 5
ExecutionTime = 0.11 s  ClockTime = 0 s

scalarTransport execute: age
smoothSolver:  Solving for age, Initial residual = 0.248913, Final residual = 0.0204971, No Iterations 3

Time = 6

smoothSolver:  Solving for Ux, Initial residual = 0.0505058, Final residual = 0.00354374, No Iterations 6
smoothSolver:  Solving for Uy, Initial residual = 0.0235697, Final residual = 0.00187305, No Iterations 5
GAMG:  Solving for p, Initial residual = 0.0579043, Final residual = 0.00339702, No Iterations 2
time step continuity errors : sum local = 0.0078415, global = 0.000473265, cumulative = 0.00696683
smoothSolver:  Solving for omega, Initial residual = 0.078966, Final residual = 0.00649299, No Iterations 5
smoothSolver:  Solving for k, Initial residual = 0.284545, Final residual = 0.0279809, No Iterations 5
ExecutionTime = 0.12 s  ClockTime = 0 s

scalarTransport execute: age
smoothSolver:  Solving for age, Initial residual = 0.192447, Final residual = 0.0162993, No Iterations 3

Time = 7

smoothSolver:  Solving for Ux, Initial residual = 0.0435128, Final residual = 0.00308569, No Iterations 6
smoothSolver:  Solving for Uy, Initial residual = 0.0198571, Final residual = 0.00170236, No Iterations 5
GAMG:  Solving for p, Initial residual = 0.047759, Final residual = 0.00410617, No Iterations 2
time step continuity errors : sum local = 0.00965265, global = -0.000173666, cumulative = 0.00679316
smoothSolver:  Solving for omega, Initial residual = 0.0602456, Final residual = 0.00530803, No Iterations 5
smoothSolver:  Solving for k, Initial residual = 0.235194, Final residual = 0.0153292, No Iterations 6
ExecutionTime = 0.14 s  ClockTime = 0 s

scalarTransport execute: age
smoothSolver:  Solving for age, Initial residual = 0.155321, Final residual = 0.0130197, No Iterations 3

Time = 8

smoothSolver:  Solving for Ux, Initial residual = 0.0351556, Final residual = 0.00343069, No Iterations 5
smoothSolver:  Solving for Uy, Initial residual = 0.0187132, Final residual = 0.00174293, No Iterations 5
GAMG:  Solving for p, Initial residual = 0.0395184, Final residual = 0.00348176, No Iterations 2
time step continuity errors : sum local = 0.00857505, global = -0.000438965, cumulative = 0.0063542
smoothSolver:  Solving for omega, Initial residual = 0.0485236, Final residual = 0.00442333, No Iterations 5
smoothSolver:  Solving for k, Initial residual = 0.200079, Final residual = 0.0135164, No Iterations 6
ExecutionTime = 0.15 s  ClockTime = 0 s

scalarTransport execute: age
smoothSolver:  Solving for age, Initial residual = 0.1282, Final residual = 0.0108048, No Iterations 3

Time = 9

smoothSolver:  Solving for Ux, Initial residual = 0.032422, Final residual = 0.00317891, No Iterations 5
smoothSolver:  Solving for Uy, Initial residual = 0.0169596, Final residual = 0.00158264, No Iterations 5
GAMG:  Solving for p, Initial residual = 0.0328386, Final residual = 0.00218038, No Iterations 2
time step continuity errors : sum local = 0.00575287, global = -0.000475384, cumulative = 0.00587881
smoothSolver:  Solving for omega, Initial residual = 0.0402328, Final residual = 0.00377009, No Iterations 5
smoothSolver:  Solving for k, Initial residual = 0.173202, Final residual = 0.0120636, No Iterations 6
ExecutionTime = 0.16 s  ClockTime = 0 s

scalarTransport execute: age
smoothSolver:  Solving for age, Initial residual = 0.10738, Final residual = 0.00902291, No Iterations 3

Time = 10

smoothSolver:  Solving for Ux, Initial residual = 0.0313679, Final residual = 0.00211758, No Iterations 6
smoothSolver:  Solving for Uy, Initial residual = 0.0158829, Final residual = 0.00147086, No Iterations 5
GAMG:  Solving for p, Initial residual = 0.0273076, Final residual = 0.000760189, No Iterations 2
time step continuity errors : sum local = 0.00209546, global = -0.000465005, cumulative = 0.00541381
smoothSolver:  Solving for omega, Initial residual = 0.0336235, Final residual = 0.0032403, No Iterations 5
smoothSolver:  Solving for k, Initial residual = 0.152278, Final residual = 0.0108745, No Iterations 6
ExecutionTime = 0.18 s  ClockTime = 0 s

scalarTransport execute: age
smoothSolver:  Solving for age, Initial residual = 0.0908849, Final residual = 0.0074835, No Iterations 3

Time = 11

smoothSolver:  Solving for Ux, Initial residual = 0.0290437, Final residual = 0.00202542, No Iterations 6
smoothSolver:  Solving for Uy, Initial residual = 0.0149643, Final residual = 0.00144799, No Iterations 5
GAMG:  Solving for p, Initial residual = 0.0236682, Final residual = 0.000875963, No Iterations 2
time step continuity errors : sum local = 0.00244832, global = -0.000393915, cumulative = 0.00501989
smoothSolver:  Solving for omega, Initial residual = 0.0284399, Final residual = 0.00279999, No Iterations 5
smoothSolver:  Solving for k, Initial residual = 0.13557, Final residual = 0.00987866, No Iterations 6
ExecutionTime = 0.19 s  ClockTime = 0 s

scalarTransport execute: age
smoothSolver:  Solving for age, Initial residual = 0.0771679, Final residual = 0.00591682, No Iterations 3

Time = 12

smoothSolver:  Solving for Ux, Initial residual = 0.0274385, Final residual = 0.00193906, No Iterations 6
smoothSolver:  Solving for Uy, Initial residual = 0.0146399, Final residual = 0.00146399, No Iterations 5
GAMG:  Solving for p, Initial residual = 0.0211937, Final residual = 0.000942664, No Iterations 2
time step continuity errors : sum local = 0.00265965, global = -0.000288621, cumulative = 0.00473127
smoothSolver:  Solving for omega, Initial residual = 0.024371, Final residual = 0.0015579, No Iterations 6
smoothSolver:  Solving for k, Initial residual = 0.121613, Final residual = 0.00901608, No Iterations 6
ExecutionTime = 0.2 s  ClockTime = 0 s

scalarTransport execute: age
smoothSolver:  Solving for age, Initial residual = 0.0659808, Final residual = 0.00485509, No Iterations 3

Time = 13

smoothSolver:  Solving for Ux, Initial residual = 0.0260284, Final residual = 0.00185181, No Iterations 6
smoothSolver:  Solving for Uy, Initial residual = 0.0145077, Final residual = 0.000986207, No Iterations 6
GAMG:  Solving for p, Initial residual = 0.0196579, Final residual = 0.000896513, No Iterations 2
time step continuity errors : sum local = 0.00253898, global = -0.000154045, cumulative = 0.00457722
smoothSolver:  Solving for omega, Initial residual = 0.020882, Final residual = 0.00135946, No Iterations 6
smoothSolver:  Solving for k, Initial residual = 0.109892, Final residual = 0.00826988, No Iterations 6
ExecutionTime = 0.22 s  ClockTime = 0 s

scalarTransport execute: age
smoothSolver:  Solving for age, Initial residual = 0.0569418, Final residual = 0.00430288, No Iterations 3

Time = 14

smoothSolver:  Solving for Ux, Initial residual = 0.0248667, Final residual = 0.00178064, No Iterations 6
smoothSolver:  Solving for Uy, Initial residual = 0.0143083, Final residual = 0.000998138, No Iterations 6
GAMG:  Solving for p, Initial residual = 0.0186185, Final residual = 0.000786353, No Iterations 2
time step continuity errors : sum local = 0.0022294, global = -3.1786e-05, cumulative = 0.00454544
smoothSolver:  Solving for omega, Initial residual = 0.0180839, Final residual = 0.00119508, No Iterations 6
smoothSolver:  Solving for k, Initial residual = 0.10012, Final residual = 0.00762827, No Iterations 6
ExecutionTime = 0.23 s  ClockTime = 0 s

scalarTransport execute: age
smoothSolver:  Solving for age, Initial residual = 0.0493288, Final residual = 0.00398896, No Iterations 3

Time = 15

smoothSolver:  Solving for Ux, Initial residual = 0.0238459, Final residual = 0.00171741, No Iterations 6
smoothSolver:  Solving for Uy, Initial residual = 0.0141762, Final residual = 0.00100121, No Iterations 6
GAMG:  Solving for p, Initial residual = 0.0177108, Final residual = 0.000717189, No Iterations 2
time step continuity errors : sum local = 0.00203498, global = 6.24949e-05, cumulative = 0.00460793
smoothSolver:  Solving for omega, Initial residual = 0.0158268, Final residual = 0.00105831, No Iterations 6
smoothSolver:  Solving for k, Initial residual = 0.091842, Final residual = 0.00707011, No Iterations 6
ExecutionTime = 0.25 s  ClockTime = 0 s

scalarTransport execute: age
smoothSolver:  Solving for age, Initial residual = 0.0428927, Final residual = 0.00382376, No Iterations 3

Time = 16

smoothSolver:  Solving for Ux, Initial residual = 0.0230225, Final residual = 0.00166537, No Iterations 6
smoothSolver:  Solving for Uy, Initial residual = 0.0140299, Final residual = 0.000998811, No Iterations 6
GAMG:  Solving for p, Initial residual = 0.0170295, Final residual = 0.000668641, No Iterations 2
time step continuity errors : sum local = 0.0018959, global = 0.00013363, cumulative = 0.00474156
smoothSolver:  Solving for omega, Initial residual = 0.013967, Final residual = 0.000943365, No Iterations 6
smoothSolver:  Solving for k, Initial residual = 0.0847374, Final residual = 0.00658089, No Iterations 6
ExecutionTime = 0.26 s  ClockTime = 0 s

scalarTransport execute: age
smoothSolver:  Solving for age, Initial residual = 0.0374593, Final residual = 0.00363552, No Iterations 3

Time = 17

smoothSolver:  Solving for Ux, Initial residual = 0.0222849, Final residual = 0.00162193, No Iterations 6
smoothSolver:  Solving for Uy, Initial residual = 0.0139389, Final residual = 0.000995122, No Iterations 6
GAMG:  Solving for p, Initial residual = 0.0164069, Final residual = 0.000642084, No Iterations 2
time step continuity errors : sum local = 0.00181746, global = 0.000181084, cumulative = 0.00492265
smoothSolver:  Solving for omega, Initial residual = 0.0124299, Final residual = 0.000845888, No Iterations 6
smoothSolver:  Solving for k, Initial residual = 0.0785823, Final residual = 0.00614925, No Iterations 6
ExecutionTime = 0.27 s  ClockTime = 0 s

scalarTransport execute: age
smoothSolver:  Solving for age, Initial residual = 0.0330979, Final residual = 0.00270864, No Iterations 4

Time = 18

smoothSolver:  Solving for Ux, Initial residual = 0.0216318, Final residual = 0.00158504, No Iterations 6
smoothSolver:  Solving for Uy, Initial residual = 0.0138438, Final residual = 0.000989822, No Iterations 6
GAMG:  Solving for p, Initial residual = 0.0159255, Final residual = 0.000636342, No Iterations 2
time step continuity errors : sum local = 0.00179677, global = 0.000207187, cumulative = 0.00512984
smoothSolver:  Solving for omega, Initial residual = 0.0111399, Final residual = 0.000762565, No Iterations 6
smoothSolver:  Solving for k, Initial residual = 0.0732115, Final residual = 0.0057666, No Iterations 6
ExecutionTime = 0.29 s  ClockTime = 0 s

scalarTransport execute: age
smoothSolver:  Solving for age, Initial residual = 0.0292162, Final residual = 0.00252108, No Iterations 4

Time = 19

smoothSolver:  Solving for Ux, Initial residual = 0.0210406, Final residual = 0.00155277, No Iterations 6
smoothSolver:  Solving for Uy, Initial residual = 0.0137136, Final residual = 0.00098322, No Iterations 6
GAMG:  Solving for p, Initial residual = 0.0154514, Final residual = 0.00063979, No Iterations 2
time step continuity errors : sum local = 0.0017975, global = 0.000216177, cumulative = 0.00534601
smoothSolver:  Solving for omega, Initial residual = 0.0100426, Final residual = 0.000690783, No Iterations 6
smoothSolver:  Solving for k, Initial residual = 0.0684866, Final residual = 0.00542528, No Iterations 6
ExecutionTime = 0.3 s  ClockTime = 0 s

scalarTransport execute: age
smoothSolver:  Solving for age, Initial residual = 0.0260347, Final residual = 0.00239857, No Iterations 4

Time = 20

smoothSolver:  Solving for Ux, Initial residual = 0.0205147, Final residual = 0.00152313, No Iterations 6
smoothSolver:  Solving for Uy, Initial residual = 0.013553, Final residual = 0.000973215, No Iterations 6
GAMG:  Solving for p, Initial residual = 0.0149675, Final residual = 0.000641503, No Iterations 2
time step continuity errors : sum local = 0.00179121, global = 0.000211172, cumulative = 0.00555718
smoothSolver:  Solving for omega, Initial residual = 0.00910676, Final residual = 0.000628447, No Iterations 6
smoothSolver:  Solving for k, Initial residual = 0.0642967, Final residual = 0.00511881, No Iterations 6
ExecutionTime = 0.32 s  ClockTime = 0 s

scalarTransport execute: age
smoothSolver:  Solving for age, Initial residual = 0.0233896, Final residual = 0.00186194, No Iterations 5

Time = 21

smoothSolver:  Solving for Ux, Initial residual = 0.0200455, Final residual = 0.00149543, No Iterations 6
smoothSolver:  Solving for Uy, Initial residual = 0.013347, Final residual = 0.000961214, No Iterations 6
GAMG:  Solving for p, Initial residual = 0.0144873, Final residual = 0.000635364, No Iterations 2
time step continuity errors : sum local = 0.0017625, global = 0.000197396, cumulative = 0.00575458
smoothSolver:  Solving for omega, Initial residual = 0.00829447, Final residual = 0.000574051, No Iterations 6
smoothSolver:  Solving for k, Initial residual = 0.060567, Final residual = 0.00484279, No Iterations 6
ExecutionTime = 0.33 s  ClockTime = 0 s

scalarTransport execute: age
smoothSolver:  Solving for age, Initial residual = 0.0210924, Final residual = 0.0017502, No Iterations 5

Time = 22

smoothSolver:  Solving for Ux, Initial residual = 0.0196059, Final residual = 0.00146927, No Iterations 6
smoothSolver:  Solving for Uy, Initial residual = 0.013113, Final residual = 0.000948658, No Iterations 6
GAMG:  Solving for p, Initial residual = 0.0139702, Final residual = 0.000627846, No Iterations 2
time step continuity errors : sum local = 0.00173029, global = 0.00017952, cumulative = 0.0059341
smoothSolver:  Solving for omega, Initial residual = 0.00758776, Final residual = 0.00052628, No Iterations 6
smoothSolver:  Solving for k, Initial residual = 0.0572266, Final residual = 0.00459291, No Iterations 6
ExecutionTime = 0.35 s  ClockTime = 0 s

scalarTransport execute: age
smoothSolver:  Solving for age, Initial residual = 0.0191598, Final residual = 0.00170859, No Iterations 5

Time = 23

smoothSolver:  Solving for Ux, Initial residual = 0.0192124, Final residual = 0.00144469, No Iterations 6
smoothSolver:  Solving for Uy, Initial residual = 0.0128923, Final residual = 0.000936122, No Iterations 6
GAMG:  Solving for p, Initial residual = 0.0133758, Final residual = 0.000620422, No Iterations 2
time step continuity errors : sum local = 0.00169775, global = 0.000160353, cumulative = 0.00609445
smoothSolver:  Solving for omega, Initial residual = 0.00696965, Final residual = 0.000484174, No Iterations 6
smoothSolver:  Solving for k, Initial residual = 0.0542156, Final residual = 0.00436546, No Iterations 6
ExecutionTime = 0.36 s  ClockTime = 1 s

scalarTransport execute: age
smoothSolver:  Solving for age, Initial residual = 0.0176921, Final residual = 0.00170266, No Iterations 5

Time = 24

smoothSolver:  Solving for Ux, Initial residual = 0.0188492, Final residual = 0.0014221, No Iterations 6
smoothSolver:  Solving for Uy, Initial residual = 0.0126943, Final residual = 0.00092441, No Iterations 6
GAMG:  Solving for p, Initial residual = 0.0127721, Final residual = 0.000618153, No Iterations 2
time step continuity errors : sum local = 0.00167872, global = 0.000145426, cumulative = 0.00623988
smoothSolver:  Solving for omega, Initial residual = 0.00642058, Final residual = 0.000446808, No Iterations 6
smoothSolver:  Solving for k, Initial residual = 0.0514803, Final residual = 0.00415723, No Iterations 6
ExecutionTime = 0.38 s  ClockTime = 1 s

scalarTransport execute: age
smoothSolver:  Solving for age, Initial residual = 0.0165068, Final residual = 0.00139173, No Iterations 6

Time = 25

smoothSolver:  Solving for Ux, Initial residual = 0.0184841, Final residual = 0.00140145, No Iterations 6
smoothSolver:  Solving for Uy, Initial residual = 0.012507, Final residual = 0.000913428, No Iterations 6
GAMG:  Solving for p, Initial residual = 0.0121672, Final residual = 0.000613193, No Iterations 2
time step continuity errors : sum local = 0.0016537, global = 0.000131829, cumulative = 0.00637171
smoothSolver:  Solving for omega, Initial residual = 0.00593386, Final residual = 0.000413519, No Iterations 6
smoothSolver:  Solving for k, Initial residual = 0.048993, Final residual = 0.00396628, No Iterations 6
ExecutionTime = 0.4 s  ClockTime = 1 s

scalarTransport execute: age
smoothSolver:  Solving for age, Initial residual = 0.0155823, Final residual = 0.00139056, No Iterations 6

Time = 26

smoothSolver:  Solving for Ux, Initial residual = 0.0181623, Final residual = 0.00138307, No Iterations 6
smoothSolver:  Solving for Uy, Initial residual = 0.0123293, Final residual = 0.000902402, No Iterations 6
GAMG:  Solving for p, Initial residual = 0.0116084, Final residual = 0.000606634, No Iterations 2
time step continuity errors : sum local = 0.00162541, global = 0.000119814, cumulative = 0.00649152
smoothSolver:  Solving for omega, Initial residual = 0.00550188, Final residual = 0.000383834, No Iterations 6
smoothSolver:  Solving for k, Initial residual = 0.0467173, Final residual = 0.00379017, No Iterations 6
ExecutionTime = 0.41 s  ClockTime = 1 s

scalarTransport execute: age
smoothSolver:  Solving for age, Initial residual = 0.014943, Final residual = 0.00140827, No Iterations 6

Time = 27

smoothSolver:  Solving for Ux, Initial residual = 0.017868, Final residual = 0.00136687, No Iterations 6
smoothSolver:  Solving for Uy, Initial residual = 0.0121869, Final residual = 0.000890971, No Iterations 6
GAMG:  Solving for p, Initial residual = 0.0113568, Final residual = 0.000596898, No Iterations 2
time step continuity errors : sum local = 0.00159, global = 0.000109836, cumulative = 0.00660136
smoothSolver:  Solving for omega, Initial residual = 0.00511829, Final residual = 0.000357361, No Iterations 6
smoothSolver:  Solving for k, Initial residual = 0.0446276, Final residual = 0.00362736, No Iterations 6
ExecutionTime = 0.43 s  ClockTime = 1 s

scalarTransport execute: age
smoothSolver:  Solving for age, Initial residual = 0.0145219, Final residual = 0.00143243, No Iterations 6

Time = 28

smoothSolver:  Solving for Ux, Initial residual = 0.0176006, Final residual = 0.00135226, No Iterations 6
smoothSolver:  Solving for Uy, Initial residual = 0.0120544, Final residual = 0.000877641, No Iterations 6
GAMG:  Solving for p, Initial residual = 0.0115188, Final residual = 0.000585593, No Iterations 2
time step continuity errors : sum local = 0.0015514, global = 0.000102862, cumulative = 0.00670422
smoothSolver:  Solving for omega, Initial residual = 0.00477822, Final residual = 0.000333669, No Iterations 6
smoothSolver:  Solving for k, Initial residual = 0.0426938, Final residual = 0.00347567, No Iterations 6
ExecutionTime = 0.44 s  ClockTime = 1 s

scalarTransport execute: age
smoothSolver:  Solving for age, Initial residual = 0.0143565, Final residual = 0.00119898, No Iterations 7

Time = 29

smoothSolver:  Solving for Ux, Initial residual = 0.0173772, Final residual = 0.00133943, No Iterations 6
smoothSolver:  Solving for Uy, Initial residual = 0.0119203, Final residual = 0.000864423, No Iterations 6
GAMG:  Solving for p, Initial residual = 0.0117804, Final residual = 0.000575422, No Iterations 2
time step continuity errors : sum local = 0.00151843, global = 9.98916e-05, cumulative = 0.00680411
smoothSolver:  Solving for omega, Initial residual = 0.00447254, Final residual = 0.000312182, No Iterations 6
smoothSolver:  Solving for k, Initial residual = 0.0408989, Final residual = 0.00333411, No Iterations 6
ExecutionTime = 0.46 s  ClockTime = 1 s

scalarTransport execute: age
smoothSolver:  Solving for age, Initial residual = 0.014273, Final residual = 0.00125938, No Iterations 7

Time = 30

smoothSolver:  Solving for Ux, Initial residual = 0.0172247, Final residual = 0.00132926, No Iterations 6
smoothSolver:  Solving for Uy, Initial residual = 0.0117691, Final residual = 0.000850146, No Iterations 6
GAMG:  Solving for p, Initial residual = 0.0120751, Final residual = 0.000574432, No Iterations 2
time step continuity errors : sum local = 0.00150773, global = 9.938e-05, cumulative = 0.00690349
smoothSolver:  Solving for omega, Initial residual = 0.00419984, Final residual = 0.00029258, No Iterations 6
smoothSolver:  Solving for k, Initial residual = 0.0392261, Final residual = 0.00320153, No Iterations 6
ExecutionTime = 0.47 s  ClockTime = 1 s

scalarTransport execute: age
smoothSolver:  Solving for age, Initial residual = 0.014351, Final residual = 0.00134551, No Iterations 7

Time = 31

smoothSolver:  Solving for Ux, Initial residual = 0.0171276, Final residual = 0.00131979, No Iterations 6
smoothSolver:  Solving for Uy, Initial residual = 0.0115785, Final residual = 0.000833901, No Iterations 6
GAMG:  Solving for p, Initial residual = 0.0122444, Final residual = 0.000585437, No Iterations 2
time step continuity errors : sum local = 0.00152765, global = 0.000100333, cumulative = 0.00700382
smoothSolver:  Solving for omega, Initial residual = 0.00395156, Final residual = 0.00027461, No Iterations 6
smoothSolver:  Solving for k, Initial residual = 0.0376612, Final residual = 0.003077, No Iterations 6
ExecutionTime = 0.49 s  ClockTime = 1 s

scalarTransport execute: age
smoothSolver:  Solving for age, Initial residual = 0.0144527, Final residual = 0.00139313, No Iterations 7

Time = 32

smoothSolver:  Solving for Ux, Initial residual = 0.0170666, Final residual = 0.00131197, No Iterations 6
smoothSolver:  Solving for Uy, Initial residual = 0.0113448, Final residual = 0.000815644, No Iterations 6
GAMG:  Solving for p, Initial residual = 0.0121766, Final residual = 0.000600755, No Iterations 2
time step continuity errors : sum local = 0.00155984, global = 0.000102068, cumulative = 0.00710589
smoothSolver:  Solving for omega, Initial residual = 0.00372518, Final residual = 0.000258126, No Iterations 6
smoothSolver:  Solving for k, Initial residual = 0.0361947, Final residual = 0.00295992, No Iterations 6
ExecutionTime = 0.5 s  ClockTime = 1 s

scalarTransport execute: age
smoothSolver:  Solving for age, Initial residual = 0.014672, Final residual = 0.0014291, No Iterations 7

Time = 33

smoothSolver:  Solving for Ux, Initial residual = 0.0169963, Final residual = 0.00130342, No Iterations 6
smoothSolver:  Solving for Uy, Initial residual = 0.0110624, Final residual = 0.000794955, No Iterations 6
GAMG:  Solving for p, Initial residual = 0.0118398, Final residual = 0.000596942, No Iterations 2
time step continuity errors : sum local = 0.00154327, global = 0.000104456, cumulative = 0.00721035
smoothSolver:  Solving for omega, Initial residual = 0.00351919, Final residual = 0.000242931, No Iterations 6
smoothSolver:  Solving for k, Initial residual = 0.0348192, Final residual = 0.00284989, No Iterations 6
ExecutionTime = 0.52 s  ClockTime = 1 s

scalarTransport execute: age
smoothSolver:  Solving for age, Initial residual = 0.0149278, Final residual = 0.0012711, No Iterations 8

Time = 34

smoothSolver:  Solving for Ux, Initial residual = 0.016924, Final residual = 0.00129503, No Iterations 6
smoothSolver:  Solving for Uy, Initial residual = 0.010736, Final residual = 0.000772818, No Iterations 6
GAMG:  Solving for p, Initial residual = 0.0113003, Final residual = 0.000576136, No Iterations 2
time step continuity errors : sum local = 0.00148364, global = 0.000104554, cumulative = 0.0073149
smoothSolver:  Solving for omega, Initial residual = 0.00332864, Final residual = 0.000228888, No Iterations 6
smoothSolver:  Solving for k, Initial residual = 0.0335241, Final residual = 0.00274623, No Iterations 6
ExecutionTime = 0.53 s  ClockTime = 1 s

scalarTransport execute: age
smoothSolver:  Solving for age, Initial residual = 0.0151904, Final residual = 0.00135693, No Iterations 8

Time = 35

smoothSolver:  Solving for Ux, Initial residual = 0.0168233, Final residual = 0.0012861, No Iterations 6
smoothSolver:  Solving for Uy, Initial residual = 0.0103888, Final residual = 0.000750282, No Iterations 6
GAMG:  Solving for p, Initial residual = 0.0107771, Final residual = 0.000554782, No Iterations 2
time step continuity errors : sum local = 0.00142446, global = 0.000101789, cumulative = 0.00741669
smoothSolver:  Solving for omega, Initial residual = 0.00315155, Final residual = 0.000215854, No Iterations 6
smoothSolver:  Solving for k, Initial residual = 0.0323065, Final residual = 0.00264895, No Iterations 6
ExecutionTime = 0.55 s  ClockTime = 1 s

scalarTransport execute: age
smoothSolver:  Solving for age, Initial residual = 0.0154607, Final residual = 0.00143086, No Iterations 8

Time = 36

smoothSolver:  Solving for Ux, Initial residual = 0.0167178, Final residual = 0.00127632, No Iterations 6
smoothSolver:  Solving for Uy, Initial residual = 0.0100402, Final residual = 0.000728723, No Iterations 6
GAMG:  Solving for p, Initial residual = 0.0103814, Final residual = 0.000546938, No Iterations 2
time step continuity errors : sum local = 0.00140333, global = 9.75209e-05, cumulative = 0.00751421
smoothSolver:  Solving for omega, Initial residual = 0.00298664, Final residual = 0.000203745, No Iterations 6
smoothSolver:  Solving for k, Initial residual = 0.0311586, Final residual = 0.00255756, No Iterations 6
ExecutionTime = 0.56 s  ClockTime = 1 s

scalarTransport execute: age
smoothSolver:  Solving for age, Initial residual = 0.0166327, Final residual = 0.00151529, No Iterations 8

Time = 37

smoothSolver:  Solving for Ux, Initial residual = 0.0166011, Final residual = 0.00126725, No Iterations 6
smoothSolver:  Solving for Uy, Initial residual = 0.00973265, Final residual = 0.000709568, No Iterations 6
GAMG:  Solving for p, Initial residual = 0.00987819, Final residual = 0.000559016, No Iterations 2
time step continuity errors : sum local = 0.00142514, global = 9.2889e-05, cumulative = 0.0076071
smoothSolver:  Solving for omega, Initial residual = 0.00283349, Final residual = 0.000192446, No Iterations 6
smoothSolver:  Solving for k, Initial residual = 0.0300814, Final residual = 0.00247195, No Iterations 6
ExecutionTime = 0.58 s  ClockTime = 1 s

scalarTransport execute: age
smoothSolver:  Solving for age, Initial residual = 0.0167998, Final residual = 0.00165037, No Iterations 8

Time = 38

smoothSolver:  Solving for Ux, Initial residual = 0.0165026, Final residual = 0.0012573, No Iterations 6
smoothSolver:  Solving for Uy, Initial residual = 0.00945619, Final residual = 0.00069211, No Iterations 6
GAMG:  Solving for p, Initial residual = 0.00960385, Final residual = 0.000592256, No Iterations 2
time step continuity errors : sum local = 0.00150444, global = 8.82062e-05, cumulative = 0.00769531
smoothSolver:  Solving for omega, Initial residual = 0.00269127, Final residual = 0.000181922, No Iterations 6
smoothSolver:  Solving for k, Initial residual = 0.0290724, Final residual = 0.00239187, No Iterations 6
ExecutionTime = 0.59 s  ClockTime = 1 s

scalarTransport execute: age
smoothSolver:  Solving for age, Initial residual = 0.0170892, Final residual = 0.00153573, No Iterations 9

Time = 39

smoothSolver:  Solving for Ux, Initial residual = 0.0164184, Final residual = 0.00124682, No Iterations 6
smoothSolver:  Solving for Uy, Initial residual = 0.00919768, Final residual = 0.00067615, No Iterations 6
GAMG:  Solving for p, Initial residual = 0.00942263, Final residual = 0.000627723, No Iterations 2
time step continuity errors : sum local = 0.0015887, global = 8.33498e-05, cumulative = 0.00777866
smoothSolver:  Solving for omega, Initial residual = 0.00255813, Final residual = 0.000172127, No Iterations 6
smoothSolver:  Solving for k, Initial residual = 0.0281286, Final residual = 0.00231682, No Iterations 6
ExecutionTime = 0.6 s  ClockTime = 1 s

scalarTransport execute: age
smoothSolver:  Solving for age, Initial residual = 0.0173117, Final residual = 0.00165216, No Iterations 9

Time = 40

smoothSolver:  Solving for Ux, Initial residual = 0.016335, Final residual = 0.00123582, No Iterations 6
smoothSolver:  Solving for Uy, Initial residual = 0.00895639, Final residual = 0.000661455, No Iterations 6
GAMG:  Solving for p, Initial residual = 0.00929064, Final residual = 0.000659376, No Iterations 2
time step continuity errors : sum local = 0.00166383, global = 7.85e-05, cumulative = 0.00785716
smoothSolver:  Solving for omega, Initial residual = 0.00243407, Final residual = 0.000162996, No Iterations 6
smoothSolver:  Solving for k, Initial residual = 0.0272449, Final residual = 0.00224635, No Iterations 6
ExecutionTime = 0.62 s  ClockTime = 1 s

scalarTransport execute: age
smoothSolver:  Solving for age, Initial residual = 0.017709, Final residual = 0.00153162, No Iterations 10

Time = 41

smoothSolver:  Solving for Ux, Initial residual = 0.0162508, Final residual = 0.00122412, No Iterations 6
smoothSolver:  Solving for Uy, Initial residual = 0.00874193, Final residual = 0.000648351, No Iterations 6
GAMG:  Solving for p, Initial residual = 0.00920999, Final residual = 0.000686276, No Iterations 2
time step continuity errors : sum local = 0.00172733, global = 7.42097e-05, cumulative = 0.00793137
smoothSolver:  Solving for omega, Initial residual = 0.00231661, Final residual = 0.000154432, No Iterations 6
smoothSolver:  Solving for k, Initial residual = 0.0264151, Final residual = 0.0021799, No Iterations 6
ExecutionTime = 0.63 s  ClockTime = 1 s

scalarTransport execute: age
smoothSolver:  Solving for age, Initial residual = 0.0181921, Final residual = 0.00164306, No Iterations 10

Time = 42

smoothSolver:  Solving for Ux, Initial residual = 0.0161552, Final residual = 0.00121192, No Iterations 6
smoothSolver:  Solving for Uy, Initial residual = 0.0085594, Final residual = 0.000637075, No Iterations 6
GAMG:  Solving for p, Initial residual = 0.00912997, Final residual = 0.000707729, No Iterations 2
time step continuity errors : sum local = 0.00177737, global = 7.07296e-05, cumulative = 0.0080021
smoothSolver:  Solving for omega, Initial residual = 0.00220733, Final residual = 0.000146395, No Iterations 6
smoothSolver:  Solving for k, Initial residual = 0.0256369, Final residual = 0.00211722, No Iterations 6
ExecutionTime = 0.65 s  ClockTime = 1 s

scalarTransport execute: age
smoothSolver:  Solving for age, Initial residual = 0.0186685, Final residual = 0.0017864, No Iterations 10

Time = 43

smoothSolver:  Solving for Ux, Initial residual = 0.0160498, Final residual = 0.00119933, No Iterations 6
smoothSolver:  Solving for Uy, Initial residual = 0.00840524, Final residual = 0.000627737, No Iterations 6
GAMG:  Solving for p, Initial residual = 0.00902309, Final residual = 0.000724982, No Iterations 2
time step continuity errors : sum local = 0.00181724, global = 6.80547e-05, cumulative = 0.00807015
smoothSolver:  Solving for omega, Initial residual = 0.0021046, Final residual = 0.000138874, No Iterations 6
smoothSolver:  Solving for k, Initial residual = 0.0249082, Final residual = 0.00205804, No Iterations 6
ExecutionTime = 0.66 s  ClockTime = 1 s

scalarTransport execute: age
smoothSolver:  Solving for age, Initial residual = 0.0194543, Final residual = 0.00169121, No Iterations 11

Time = 44

smoothSolver:  Solving for Ux, Initial residual = 0.0159381, Final residual = 0.00118656, No Iterations 6
smoothSolver:  Solving for Uy, Initial residual = 0.00827892, Final residual = 0.000620468, No Iterations 6
GAMG:  Solving for p, Initial residual = 0.00889152, Final residual = 0.000738038, No Iterations 2
time step continuity errors : sum local = 0.00184638, global = 6.62351e-05, cumulative = 0.00813639
smoothSolver:  Solving for omega, Initial residual = 0.00200852, Final residual = 0.000131835, No Iterations 6
smoothSolver:  Solving for k, Initial residual = 0.0242234, Final residual = 0.00200205, No Iterations 6
ExecutionTime = 0.67 s  ClockTime = 1 s

scalarTransport execute: age
smoothSolver:  Solving for age, Initial residual = 0.0203034, Final residual = 0.00181863, No Iterations 11

Time = 45

smoothSolver:  Solving for Ux, Initial residual = 0.0158222, Final residual = 0.00117403, No Iterations 6
smoothSolver:  Solving for Uy, Initial residual = 0.00817615, Final residual = 0.000615287, No Iterations 6
GAMG:  Solving for p, Initial residual = 0.00870698, Final residual = 0.000740655, No Iterations 2
time step continuity errors : sum local = 0.00184879, global = 6.02901e-05, cumulative = 0.00819668
smoothSolver:  Solving for omega, Initial residual = 0.00191757, Final residual = 0.000125173, No Iterations 6
smoothSolver:  Solving for k, Initial residual = 0.0235797, Final residual = 0.00194911, No Iterations 6
ExecutionTime = 0.69 s  ClockTime = 1 s

scalarTransport execute: age
smoothSolver:  Solving for age, Initial residual = 0.0209133, Final residual = 0.00193444, No Iterations 11

Time = 46

smoothSolver:  Solving for Ux, Initial residual = 0.0157094, Final residual = 0.00116291, No Iterations 6
smoothSolver:  Solving for Uy, Initial residual = 0.00809189, Final residual = 0.000611243, No Iterations 6
GAMG:  Solving for p, Initial residual = 0.00850419, Final residual = 0.000745773, No Iterations 2
time step continuity errors : sum local = 0.00185627, global = 5.53342e-05, cumulative = 0.00825201
smoothSolver:  Solving for omega, Initial residual = 0.00183101, Final residual = 0.000182896, No Iterations 5
smoothSolver:  Solving for k, Initial residual = 0.0229862, Final residual = 0.0019, No Iterations 6
ExecutionTime = 0.7 s  ClockTime = 1 s

scalarTransport execute: age
smoothSolver:  Solving for age, Initial residual = 0.0214831, Final residual = 0.00206891, No Iterations 11

Time = 47

smoothSolver:  Solving for Ux, Initial residual = 0.0155944, Final residual = 0.00115253, No Iterations 6
smoothSolver:  Solving for Uy, Initial residual = 0.00802439, Final residual = 0.000609061, No Iterations 6
GAMG:  Solving for p, Initial residual = 0.00828224, Final residual = 0.000745849, No Iterations 2
time step continuity errors : sum local = 0.00185033, global = 5.16978e-05, cumulative = 0.00830371
smoothSolver:  Solving for omega, Initial residual = 0.00175313, Final residual = 0.000174455, No Iterations 5
smoothSolver:  Solving for k, Initial residual = 0.0224318, Final residual = 0.00185392, No Iterations 6
ExecutionTime = 0.72 s  ClockTime = 1 s

scalarTransport execute: age
smoothSolver:  Solving for age, Initial residual = 0.0216582, Final residual = 0.0021025, No Iterations 11

Time = 48

smoothSolver:  Solving for Ux, Initial residual = 0.0154659, Final residual = 0.0011422, No Iterations 6
smoothSolver:  Solving for Uy, Initial residual = 0.00797044, Final residual = 0.000607959, No Iterations 6
GAMG:  Solving for p, Initial residual = 0.00804861, Final residual = 0.000742922, No Iterations 2
time step continuity errors : sum local = 0.00183629, global = 4.91845e-05, cumulative = 0.00835289
smoothSolver:  Solving for omega, Initial residual = 0.00168181, Final residual = 0.000166588, No Iterations 5
smoothSolver:  Solving for k, Initial residual = 0.0219033, Final residual = 0.00180994, No Iterations 6
ExecutionTime = 0.74 s  ClockTime = 1 s

scalarTransport execute: age
smoothSolver:  Solving for age, Initial residual = 0.02167, Final residual = 0.00206922, No Iterations 11

Time = 49

smoothSolver:  Solving for Ux, Initial residual = 0.0153344, Final residual = 0.00113177, No Iterations 6
smoothSolver:  Solving for Uy, Initial residual = 0.0079258, Final residual = 0.000607598, No Iterations 6
GAMG:  Solving for p, Initial residual = 0.00782103, Final residual = 0.000739032, No Iterations 2
time step continuity errors : sum local = 0.00181962, global = 4.77565e-05, cumulative = 0.00840065
smoothSolver:  Solving for omega, Initial residual = 0.00161694, Final residual = 0.000159337, No Iterations 5
smoothSolver:  Solving for k, Initial residual = 0.0213985, Final residual = 0.00176777, No Iterations 6
ExecutionTime = 0.75 s  ClockTime = 1 s

scalarTransport execute: age
smoothSolver:  Solving for age, Initial residual = 0.0212747, Final residual = 0.00192972, No Iterations 11

Time = 50

smoothSolver:  Solving for Ux, Initial residual = 0.0151938, Final residual = 0.0011211, No Iterations 6
smoothSolver:  Solving for Uy, Initial residual = 0.0078913, Final residual = 0.000607672, No Iterations 6
GAMG:  Solving for p, Initial residual = 0.00760926, Final residual = 0.000734887, No Iterations 2
time step continuity errors : sum local = 0.00180228, global = 4.73535e-05, cumulative = 0.008448
smoothSolver:  Solving for omega, Initial residual = 0.00155513, Final residual = 0.000152469, No Iterations 5
smoothSolver:  Solving for k, Initial residual = 0.0209164, Final residual = 0.0017273, No Iterations 6
ExecutionTime = 0.77 s  ClockTime = 1 s

scalarTransport execute: age
smoothSolver:  Solving for age, Initial residual = 0.0206788, Final residual = 0.00198818, No Iterations 10

Time = 51

smoothSolver:  Solving for Ux, Initial residual = 0.0150493, Final residual = 0.00110995, No Iterations 6
smoothSolver:  Solving for Uy, Initial residual = 0.00786141, Final residual = 0.000608033, No Iterations 6
GAMG:  Solving for p, Initial residual = 0.00741292, Final residual = 0.000733341, No Iterations 2
time step continuity errors : sum local = 0.00179138, global = 4.75708e-05, cumulative = 0.00849557
smoothSolver:  Solving for omega, Initial residual = 0.00149603, Final residual = 0.000145971, No Iterations 5
smoothSolver:  Solving for k, Initial residual = 0.0204562, Final residual = 0.00168843, No Iterations 6
ExecutionTime = 0.78 s  ClockTime = 1 s

scalarTransport execute: age
smoothSolver:  Solving for age, Initial residual = 0.0200876, Final residual = 0.00181283, No Iterations 10

Time = 52

smoothSolver:  Solving for Ux, Initial residual = 0.014888, Final residual = 0.001098, No Iterations 6
smoothSolver:  Solving for Uy, Initial residual = 0.00783478, Final residual = 0.000608487, No Iterations 6
GAMG:  Solving for p, Initial residual = 0.00722728, Final residual = 0.000360779, No Iterations 3
time step continuity errors : sum local = 0.000877869, global = 6.39536e-05, cumulative = 0.00855953
smoothSolver:  Solving for omega, Initial residual = 0.00144569, Final residual = 0.000139775, No Iterations 5
smoothSolver:  Solving for k, Initial residual = 0.0200276, Final residual = 0.00165147, No Iterations 6
ExecutionTime = 0.8 s  ClockTime = 1 s

scalarTransport execute: age
smoothSolver:  Solving for age, Initial residual = 0.0196202, Final residual = 0.00194073, No Iterations 9

Time = 53

smoothSolver:  Solving for Ux, Initial residual = 0.0147951, Final residual = 0.00108897, No Iterations 6
smoothSolver:  Solving for Uy, Initial residual = 0.00787235, Final residual = 0.000615581, No Iterations 6
GAMG:  Solving for p, Initial residual = 0.00679621, Final residual = 0.000592232, No Iterations 2
time step continuity errors : sum local = 0.0014329, global = 5.42267e-05, cumulative = 0.00861375
smoothSolver:  Solving for omega, Initial residual = 0.00139229, Final residual = 0.000134194, No Iterations 5
smoothSolver:  Solving for k, Initial residual = 0.0195933, Final residual = 0.00161498, No Iterations 6
ExecutionTime = 0.81 s  ClockTime = 1 s

scalarTransport execute: age
smoothSolver:  Solving for age, Initial residual = 0.0190999, Final residual = 0.00184809, No Iterations 9

Time = 54

smoothSolver:  Solving for Ux, Initial residual = 0.0145885, Final residual = 0.00107814, No Iterations 6
smoothSolver:  Solving for Uy, Initial residual = 0.0078011, Final residual = 0.000610189, No Iterations 6
GAMG:  Solving for p, Initial residual = 0.00700487, Final residual = 0.000366753, No Iterations 3
time step continuity errors : sum local = 0.000884974, global = 7.05617e-05, cumulative = 0.00868432
smoothSolver:  Solving for omega, Initial residual = 0.00133768, Final residual = 0.000128606, No Iterations 5
smoothSolver:  Solving for k, Initial residual = 0.0191861, Final residual = 0.00158021, No Iterations 6
ExecutionTime = 0.82 s  ClockTime = 1 s

scalarTransport execute: age
smoothSolver:  Solving for age, Initial residual = 0.0188493, Final residual = 0.00174647, No Iterations 9

Time = 55

smoothSolver:  Solving for Ux, Initial residual = 0.0143973, Final residual = 0.00105915, No Iterations 6
smoothSolver:  Solving for Uy, Initial residual = 0.0078138, Final residual = 0.000613718, No Iterations 6
GAMG:  Solving for p, Initial residual = 0.00655069, Final residual = 0.000621879, No Iterations 2
time step continuity errors : sum local = 0.00149382, global = 5.89379e-05, cumulative = 0.00874325
smoothSolver:  Solving for omega, Initial residual = 0.00129556, Final residual = 0.000123527, No Iterations 5
smoothSolver:  Solving for k, Initial residual = 0.0187779, Final residual = 0.00154585, No Iterations 6
ExecutionTime = 0.84 s  ClockTime = 1 s

scalarTransport execute: age
smoothSolver:  Solving for age, Initial residual = 0.0182704, Final residual = 0.00163403, No Iterations 9

Time = 56

smoothSolver:  Solving for Ux, Initial residual = 0.0142305, Final residual = 0.00104737, No Iterations 6
smoothSolver:  Solving for Uy, Initial residual = 0.00773884, Final residual = 0.000607313, No Iterations 6
GAMG:  Solving for p, Initial residual = 0.00682656, Final residual = 0.000371028, No Iterations 3
time step continuity errors : sum local = 0.00088773, global = 6.69545e-05, cumulative = 0.00881021
smoothSolver:  Solving for omega, Initial residual = 0.0012717, Final residual = 0.000118222, No Iterations 5
smoothSolver:  Solving for k, Initial residual = 0.0183998, Final residual = 0.00151314, No Iterations 6
ExecutionTime = 0.85 s  ClockTime = 1 s

scalarTransport execute: age
smoothSolver:  Solving for age, Initial residual = 0.0180185, Final residual = 0.00155443, No Iterations 9

Time = 57

smoothSolver:  Solving for Ux, Initial residual = 0.0141413, Final residual = 0.00103493, No Iterations 6
smoothSolver:  Solving for Uy, Initial residual = 0.00772298, Final residual = 0.000607634, No Iterations 6
GAMG:  Solving for p, Initial residual = 0.00643125, Final residual = 0.000631028, No Iterations 2
time step continuity errors : sum local = 0.00150207, global = 5.26123e-05, cumulative = 0.00886282
smoothSolver:  Solving for omega, Initial residual = 0.00122326, Final residual = 0.000113824, No Iterations 5
smoothSolver:  Solving for k, Initial residual = 0.0180131, Final residual = 0.00148038, No Iterations 6
ExecutionTime = 0.86 s  ClockTime = 1 s

scalarTransport execute: age
smoothSolver:  Solving for age, Initial residual = 0.0175692, Final residual = 0.00153604, No Iterations 9

Time = 58

smoothSolver:  Solving for Ux, Initial residual = 0.0139763, Final residual = 0.0010237, No Iterations 6
smoothSolver:  Solving for Uy, Initial residual = 0.00765348, Final residual = 0.000600371, No Iterations 6
GAMG:  Solving for p, Initial residual = 0.00675664, Final residual = 0.000401278, No Iterations 3
time step continuity errors : sum local = 0.000950848, global = 7.16408e-05, cumulative = 0.00893446
smoothSolver:  Solving for omega, Initial residual = 0.00119593, Final residual = 0.000109452, No Iterations 5
smoothSolver:  Solving for k, Initial residual = 0.0176474, Final residual = 0.00144895, No Iterations 6
ExecutionTime = 0.88 s  ClockTime = 1 s

scalarTransport execute: age
smoothSolver:  Solving for age, Initial residual = 0.0171559, Final residual = 0.00170513, No Iterations 8

Time = 59

smoothSolver:  Solving for Ux, Initial residual = 0.0139244, Final residual = 0.00101253, No Iterations 6
smoothSolver:  Solving for Uy, Initial residual = 0.00761723, Final residual = 0.000597712, No Iterations 6
GAMG:  Solving for p, Initial residual = 0.00640398, Final residual = 0.000304345, No Iterations 3
time step continuity errors : sum local = 0.000717728, global = 5.65716e-05, cumulative = 0.00899103
smoothSolver:  Solving for omega, Initial residual = 0.0011641, Final residual = 0.000105496, No Iterations 5
smoothSolver:  Solving for k, Initial residual = 0.0172879, Final residual = 0.00141787, No Iterations 6
ExecutionTime = 0.89 s  ClockTime = 1 s

scalarTransport execute: age
smoothSolver:  Solving for age, Initial residual = 0.0166308, Final residual = 0.00165072, No Iterations 8

Time = 60

smoothSolver:  Solving for Ux, Initial residual = 0.0138464, Final residual = 0.00100651, No Iterations 6
smoothSolver:  Solving for Uy, Initial residual = 0.00755105, Final residual = 0.000590492, No Iterations 6
GAMG:  Solving for p, Initial residual = 0.0065108, Final residual = 0.000291475, No Iterations 3
time step continuity errors : sum local = 0.00068273, global = 6.38892e-05, cumulative = 0.00905492
smoothSolver:  Solving for omega, Initial residual = 0.00112747, Final residual = 0.000101472, No Iterations 5
smoothSolver:  Solving for k, Initial residual = 0.0169276, Final residual = 0.00138724, No Iterations 6
ExecutionTime = 0.91 s  ClockTime = 1 s

scalarTransport execute: age
smoothSolver:  Solving for age, Initial residual = 0.0161436, Final residual = 0.00158836, No Iterations 8

Time = 61

smoothSolver:  Solving for Ux, Initial residual = 0.0136939, Final residual = 0.000992918, No Iterations 6
smoothSolver:  Solving for Uy, Initial residual = 0.00745355, Final residual = 0.000580846, No Iterations 6
GAMG:  Solving for p, Initial residual = 0.00661134, Final residual = 0.000305063, No Iterations 3
time step continuity errors : sum local = 0.000711525, global = 7.08275e-05, cumulative = 0.00912575
smoothSolver:  Solving for omega, Initial residual = 0.00110825, Final residual = 9.79313e-05, No Iterations 5
smoothSolver:  Solving for k, Initial residual = 0.016573, Final residual = 0.00135705, No Iterations 6
ExecutionTime = 0.92 s  ClockTime = 1 s

scalarTransport execute: age
smoothSolver:  Solving for age, Initial residual = 0.015687, Final residual = 0.00154448, No Iterations 8

Time = 62

smoothSolver:  Solving for Ux, Initial residual = 0.013571, Final residual = 0.000981303, No Iterations 6
smoothSolver:  Solving for Uy, Initial residual = 0.0073157, Final residual = 0.000568066, No Iterations 6
GAMG:  Solving for p, Initial residual = 0.00667115, Final residual = 0.00032503, No Iterations 3
time step continuity errors : sum local = 0.000754497, global = 5.79474e-05, cumulative = 0.0091837
smoothSolver:  Solving for omega, Initial residual = 0.00108482, Final residual = 9.47123e-05, No Iterations 5
smoothSolver:  Solving for k, Initial residual = 0.0162244, Final residual = 0.00132713, No Iterations 6
ExecutionTime = 0.94 s  ClockTime = 1 s

scalarTransport execute: age
smoothSolver:  Solving for age, Initial residual = 0.015338, Final residual = 0.00131989, No Iterations 9

Time = 63

smoothSolver:  Solving for Ux, Initial residual = 0.0135018, Final residual = 0.000974453, No Iterations 6
smoothSolver:  Solving for Uy, Initial residual = 0.0071581, Final residual = 0.000553706, No Iterations 6
GAMG:  Solving for p, Initial residual = 0.00678389, Final residual = 0.000324331, No Iterations 3
time step continuity errors : sum local = 0.000748233, global = 5.18197e-05, cumulative = 0.00923552
smoothSolver:  Solving for omega, Initial residual = 0.00106053, Final residual = 9.18102e-05, No Iterations 5
smoothSolver:  Solving for k, Initial residual = 0.0158754, Final residual = 0.00129727, No Iterations 6
ExecutionTime = 0.95 s  ClockTime = 1 s

scalarTransport execute: age
smoothSolver:  Solving for age, Initial residual = 0.0150322, Final residual = 0.00131091, No Iterations 9

Time = 64

smoothSolver:  Solving for Ux, Initial residual = 0.0133828, Final residual = 0.000964168, No Iterations 6
smoothSolver:  Solving for Uy, Initial residual = 0.00701438, Final residual = 0.000540592, No Iterations 6
GAMG:  Solving for p, Initial residual = 0.00692663, Final residual = 0.00033078, No Iterations 3
time step continuity errors : sum local = 0.000759536, global = 5.19362e-05, cumulative = 0.00928745
smoothSolver:  Solving for omega, Initial residual = 0.00104061, Final residual = 8.91687e-05, No Iterations 5
smoothSolver:  Solving for k, Initial residual = 0.0155277, Final residual = 0.0012675, No Iterations 6
ExecutionTime = 0.96 s  ClockTime = 1 s

scalarTransport execute: age
smoothSolver:  Solving for age, Initial residual = 0.0147179, Final residual = 0.00131962, No Iterations 9

Time = 65

smoothSolver:  Solving for Ux, Initial residual = 0.0132465, Final residual = 0.000952657, No Iterations 6
smoothSolver:  Solving for Uy, Initial residual = 0.00685569, Final residual = 0.000525939, No Iterations 6
GAMG:  Solving for p, Initial residual = 0.00705267, Final residual = 0.000335637, No Iterations 3
time step continuity errors : sum local = 0.000767744, global = 5.34704e-05, cumulative = 0.00934092
smoothSolver:  Solving for omega, Initial residual = 0.00102293, Final residual = 8.67621e-05, No Iterations 5
smoothSolver:  Solving for k, Initial residual = 0.0151791, Final residual = 0.00123771, No Iterations 6
ExecutionTime = 0.98 s  ClockTime = 1 s

scalarTransport execute: age
smoothSolver:  Solving for age, Initial residual = 0.0142859, Final residual = 0.00134573, No Iterations 9

Time = 66

smoothSolver:  Solving for Ux, Initial residual = 0.0131099, Final residual = 0.000941161, No Iterations 6
smoothSolver:  Solving for Uy, Initial residual = 0.00668457, Final residual = 0.000510161, No Iterations 6
GAMG:  Solving for p, Initial residual = 0.00715513, Final residual = 0.000341816, No Iterations 3
time step continuity errors : sum local = 0.000779007, global = 5.52472e-05, cumulative = 0.00939617
smoothSolver:  Solving for omega, Initial residual = 0.00100488, Final residual = 8.44571e-05, No Iterations 5
smoothSolver:  Solving for k, Initial residual = 0.0148286, Final residual = 0.00120786, No Iterations 6
ExecutionTime = 0.99 s  ClockTime = 1 s

scalarTransport execute: age
smoothSolver:  Solving for age, Initial residual = 0.0139763, Final residual = 0.00137877, No Iterations 9

Time = 67

smoothSolver:  Solving for Ux, Initial residual = 0.0129752, Final residual = 0.00093007, No Iterations 6
smoothSolver:  Solving for Uy, Initial residual = 0.00650504, Final residual = 0.000493577, No Iterations 6
GAMG:  Solving for p, Initial residual = 0.00724289, Final residual = 0.000352402, No Iterations 3
time step continuity errors : sum local = 0.000800172, global = 5.44475e-05, cumulative = 0.00945062
smoothSolver:  Solving for omega, Initial residual = 0.00098965, Final residual = 8.22312e-05, No Iterations 5
smoothSolver:  Solving for k, Initial residual = 0.014476, Final residual = 0.00117787, No Iterations 6
ExecutionTime = 1 s  ClockTime = 1 s

scalarTransport execute: age
smoothSolver:  Solving for age, Initial residual = 0.0136378, Final residual = 0.00123779, No Iterations 10

Time = 68

smoothSolver:  Solving for Ux, Initial residual = 0.0128459, Final residual = 0.000919786, No Iterations 6
smoothSolver:  Solving for Uy, Initial residual = 0.00631125, Final residual = 0.00047617, No Iterations 6
GAMG:  Solving for p, Initial residual = 0.00733699, Final residual = 0.000371176, No Iterations 3
time step continuity errors : sum local = 0.000840271, global = 5.87712e-05, cumulative = 0.00950939
smoothSolver:  Solving for omega, Initial residual = 0.000974928, Final residual = 8.00644e-05, No Iterations 5
smoothSolver:  Solving for k, Initial residual = 0.0141222, Final residual = 0.0011477, No Iterations 6
ExecutionTime = 1.02 s  ClockTime = 1 s

scalarTransport execute: age
smoothSolver:  Solving for age, Initial residual = 0.0133906, Final residual = 0.00127188, No Iterations 10

Time = 69

smoothSolver:  Solving for Ux, Initial residual = 0.0126928, Final residual = 0.000907822, No Iterations 6
smoothSolver:  Solving for Uy, Initial residual = 0.00611579, Final residual = 0.000458868, No Iterations 6
GAMG:  Solving for p, Initial residual = 0.00741995, Final residual = 0.000379859, No Iterations 3
time step continuity errors : sum local = 0.000858788, global = 6.13774e-05, cumulative = 0.00957077
smoothSolver:  Solving for omega, Initial residual = 0.000960367, Final residual = 7.78431e-05, No Iterations 5
smoothSolver:  Solving for k, Initial residual = 0.013765, Final residual = 0.00111731, No Iterations 6
ExecutionTime = 1.03 s  ClockTime = 1 s

scalarTransport execute: age
smoothSolver:  Solving for age, Initial residual = 0.013167, Final residual = 0.00130963, No Iterations 10

Time = 70

smoothSolver:  Solving for Ux, Initial residual = 0.0125437, Final residual = 0.000896092, No Iterations 6
smoothSolver:  Solving for Uy, Initial residual = 0.00591981, Final residual = 0.000441637, No Iterations 6
GAMG:  Solving for p, Initial residual = 0.00753502, Final residual = 0.000384238, No Iterations 3
time step continuity errors : sum local = 0.000868175, global = 6.23946e-05, cumulative = 0.00963316
smoothSolver:  Solving for omega, Initial residual = 0.000946127, Final residual = 7.56352e-05, No Iterations 5
smoothSolver:  Solving for k, Initial residual = 0.0134059, Final residual = 0.00108673, No Iterations 6
ExecutionTime = 1.04 s  ClockTime = 1 s

scalarTransport execute: age
smoothSolver:  Solving for age, Initial residual = 0.0129489, Final residual = 0.00118507, No Iterations 11

Time = 71

smoothSolver:  Solving for Ux, Initial residual = 0.0123863, Final residual = 0.000883864, No Iterations 6
smoothSolver:  Solving for Uy, Initial residual = 0.00573109, Final residual = 0.000424776, No Iterations 6
GAMG:  Solving for p, Initial residual = 0.00761689, Final residual = 0.000385598, No Iterations 3
time step continuity errors : sum local = 0.000871214, global = 6.26375e-05, cumulative = 0.0096958
smoothSolver:  Solving for omega, Initial residual = 0.000929588, Final residual = 7.34984e-05, No Iterations 5
smoothSolver:  Solving for k, Initial residual = 0.0130455, Final residual = 0.00105596, No Iterations 6
ExecutionTime = 1.05 s  ClockTime = 1 s

scalarTransport execute: age
smoothSolver:  Solving for age, Initial residual = 0.0127624, Final residual = 0.00121898, No Iterations 11

Time = 72

smoothSolver:  Solving for Ux, Initial residual = 0.0122144, Final residual = 0.00087094, No Iterations 6
smoothSolver:  Solving for Uy, Initial residual = 0.00555098, Final residual = 0.000409065, No Iterations 6
GAMG:  Solving for p, Initial residual = 0.00772548, Final residual = 0.000385295, No Iterations 3
time step continuity errors : sum local = 0.000871411, global = 6.2633e-05, cumulative = 0.00975843
smoothSolver:  Solving for omega, Initial residual = 0.000913811, Final residual = 7.13449e-05, No Iterations 5
smoothSolver:  Solving for k, Initial residual = 0.0126838, Final residual = 0.00102505, No Iterations 6
ExecutionTime = 1.07 s  ClockTime = 1 s

scalarTransport execute: age
smoothSolver:  Solving for age, Initial residual = 0.0126221, Final residual = 0.00125867, No Iterations 11

Time = 73

smoothSolver:  Solving for Ux, Initial residual = 0.0120314, Final residual = 0.000857364, No Iterations 6
smoothSolver:  Solving for Uy, Initial residual = 0.00538449, Final residual = 0.000395377, No Iterations 6
GAMG:  Solving for p, Initial residual = 0.00785256, Final residual = 0.000382963, No Iterations 3
time step continuity errors : sum local = 0.00086793, global = 6.23947e-05, cumulative = 0.00982083
smoothSolver:  Solving for omega, Initial residual = 0.000899196, Final residual = 6.9133e-05, No Iterations 5
smoothSolver:  Solving for k, Initial residual = 0.0123213, Final residual = 0.00099405, No Iterations 6
ExecutionTime = 1.08 s  ClockTime = 1 s

scalarTransport execute: age
smoothSolver:  Solving for age, Initial residual = 0.0125205, Final residual = 0.00114677, No Iterations 12

Time = 74

smoothSolver:  Solving for Ux, Initial residual = 0.011843, Final residual = 0.000843083, No Iterations 6
smoothSolver:  Solving for Uy, Initial residual = 0.00524454, Final residual = 0.000386131, No Iterations 6
GAMG:  Solving for p, Initial residual = 0.00787511, Final residual = 0.000377552, No Iterations 3
time step continuity errors : sum local = 0.000858044, global = 6.22454e-05, cumulative = 0.00988307
smoothSolver:  Solving for omega, Initial residual = 0.00088261, Final residual = 6.68381e-05, No Iterations 5
smoothSolver:  Solving for k, Initial residual = 0.0119576, Final residual = 0.000962977, No Iterations 6
ExecutionTime = 1.09 s  ClockTime = 1 s

scalarTransport execute: age
smoothSolver:  Solving for age, Initial residual = 0.0124283, Final residual = 0.00118691, No Iterations 12

Time = 75

smoothSolver:  Solving for Ux, Initial residual = 0.0116458, Final residual = 0.000828149, No Iterations 6
smoothSolver:  Solving for Uy, Initial residual = 0.0051477, Final residual = 0.000380201, No Iterations 6
GAMG:  Solving for p, Initial residual = 0.00792532, Final residual = 0.000368445, No Iterations 3
time step continuity errors : sum local = 0.000840505, global = 6.21227e-05, cumulative = 0.00994519
smoothSolver:  Solving for omega, Initial residual = 0.00086681, Final residual = 6.45247e-05, No Iterations 5
smoothSolver:  Solving for k, Initial residual = 0.0115927, Final residual = 0.000931871, No Iterations 6
ExecutionTime = 1.11 s  ClockTime = 1 s

scalarTransport execute: age
smoothSolver:  Solving for age, Initial residual = 0.0124095, Final residual = 0.00123154, No Iterations 12

Time = 76

smoothSolver:  Solving for Ux, Initial residual = 0.011441, Final residual = 0.000812864, No Iterations 6
smoothSolver:  Solving for Uy, Initial residual = 0.00506817, Final residual = 0.000375213, No Iterations 6
GAMG:  Solving for p, Initial residual = 0.00811707, Final residual = 0.000796254, No Iterations 2
time step continuity errors : sum local = 0.00182586, global = 9.35661e-05, cumulative = 0.0100388
smoothSolver:  Solving for omega, Initial residual = 0.000849295, Final residual = 6.21033e-05, No Iterations 5
smoothSolver:  Solving for k, Initial residual = 0.0112266, Final residual = 0.000900757, No Iterations 6
ExecutionTime = 1.12 s  ClockTime = 1 s

scalarTransport execute: age
smoothSolver:  Solving for age, Initial residual = 0.0124107, Final residual = 0.00112242, No Iterations 13

Time = 77

smoothSolver:  Solving for Ux, Initial residual = 0.0111392, Final residual = 0.000792982, No Iterations 6
smoothSolver:  Solving for Uy, Initial residual = 0.00499616, Final residual = 0.000371285, No Iterations 6
GAMG:  Solving for p, Initial residual = 0.00870676, Final residual = 0.000411575, No Iterations 3
time step continuity errors : sum local = 0.000951866, global = 7.64729e-05, cumulative = 0.0101152
smoothSolver:  Solving for omega, Initial residual = 0.000837924, Final residual = 5.96873e-05, No Iterations 5
smoothSolver:  Solving for k, Initial residual = 0.010869, Final residual = 0.00087025, No Iterations 6
ExecutionTime = 1.13 s  ClockTime = 1 s

scalarTransport execute: age
smoothSolver:  Solving for age, Initial residual = 0.0128093, Final residual = 0.00117963, No Iterations 13

Time = 78

smoothSolver:  Solving for Ux, Initial residual = 0.0110809, Final residual = 0.000782654, No Iterations 6
smoothSolver:  Solving for Uy, Initial residual = 0.00490661, Final residual = 0.000364002, No Iterations 6
GAMG:  Solving for p, Initial residual = 0.00812549, Final residual = 0.000729239, No Iterations 2
time step continuity errors : sum local = 0.00167822, global = 9.96443e-05, cumulative = 0.0102149
smoothSolver:  Solving for omega, Initial residual = 0.000808066, Final residual = 5.70939e-05, No Iterations 5
smoothSolver:  Solving for k, Initial residual = 0.0105132, Final residual = 0.000839785, No Iterations 6
ExecutionTime = 1.15 s  ClockTime = 1 s

scalarTransport execute: age
smoothSolver:  Solving for age, Initial residual = 0.0128884, Final residual = 0.0012256, No Iterations 13

Time = 79

smoothSolver:  Solving for Ux, Initial residual = 0.0107492, Final residual = 0.000763724, No Iterations 6
smoothSolver:  Solving for Uy, Initial residual = 0.00487037, Final residual = 0.000361604, No Iterations 6
GAMG:  Solving for p, Initial residual = 0.00838002, Final residual = 0.000363002, No Iterations 3
time step continuity errors : sum local = 0.000833174, global = 7.23338e-05, cumulative = 0.0102872
smoothSolver:  Solving for omega, Initial residual = 0.000794553, Final residual = 5.457e-05, No Iterations 5
smoothSolver:  Solving for k, Initial residual = 0.0101648, Final residual = 0.000810115, No Iterations 6
ExecutionTime = 1.16 s  ClockTime = 1 s

scalarTransport execute: age
smoothSolver:  Solving for age, Initial residual = 0.0131468, Final residual = 0.0012706, No Iterations 13

Time = 80

smoothSolver:  Solving for Ux, Initial residual = 0.0106296, Final residual = 0.000752012, No Iterations 6
smoothSolver:  Solving for Uy, Initial residual = 0.00479706, Final residual = 0.000354606, No Iterations 6
GAMG:  Solving for p, Initial residual = 0.00812206, Final residual = 0.000725295, No Iterations 2
time step continuity errors : sum local = 0.00165442, global = 9.67556e-05, cumulative = 0.010384
smoothSolver:  Solving for omega, Initial residual = 0.000771263, Final residual = 5.17386e-05, No Iterations 5
smoothSolver:  Solving for k, Initial residual = 0.00982379, Final residual = 0.000780694, No Iterations 6
ExecutionTime = 1.17 s  ClockTime = 1 s

scalarTransport execute: age
smoothSolver:  Solving for age, Initial residual = 0.0133468, Final residual = 0.00131812, No Iterations 13

Time = 81

smoothSolver:  Solving for Ux, Initial residual = 0.0103216, Final residual = 0.000733646, No Iterations 6
smoothSolver:  Solving for Uy, Initial residual = 0.00474359, Final residual = 0.000350721, No Iterations 6
GAMG:  Solving for p, Initial residual = 0.00823365, Final residual = 0.000380951, No Iterations 3
time step continuity errors : sum local = 0.00086599, global = 7.96073e-05, cumulative = 0.0104636
smoothSolver:  Solving for omega, Initial residual = 0.000752934, Final residual = 4.90038e-05, No Iterations 5
smoothSolver:  Solving for k, Initial residual = 0.00948915, Final residual = 0.000752466, No Iterations 6
ExecutionTime = 1.19 s  ClockTime = 1 s

scalarTransport execute: age
smoothSolver:  Solving for age, Initial residual = 0.0135871, Final residual = 0.00120785, No Iterations 14

Time = 82

smoothSolver:  Solving for Ux, Initial residual = 0.0101511, Final residual = 0.000716583, No Iterations 6
smoothSolver:  Solving for Uy, Initial residual = 0.0046762, Final residual = 0.000342907, No Iterations 6
GAMG:  Solving for p, Initial residual = 0.007871, Final residual = 0.00070772, No Iterations 2
time step continuity errors : sum local = 0.00160105, global = 0.000116952, cumulative = 0.0105805
smoothSolver:  Solving for omega, Initial residual = 0.000723113, Final residual = 4.64364e-05, No Iterations 5
smoothSolver:  Solving for k, Initial residual = 0.00917262, Final residual = 0.000724679, No Iterations 6
ExecutionTime = 1.2 s  ClockTime = 1 s

scalarTransport execute: age
smoothSolver:  Solving for age, Initial residual = 0.0140389, Final residual = 0.00139051, No Iterations 13

Time = 83

smoothSolver:  Solving for Ux, Initial residual = 0.00983353, Final residual = 0.000699103, No Iterations 6
smoothSolver:  Solving for Uy, Initial residual = 0.00462618, Final residual = 0.000339511, No Iterations 6
GAMG:  Solving for p, Initial residual = 0.00787559, Final residual = 0.000393973, No Iterations 3
time step continuity errors : sum local = 0.000891058, global = 8.04066e-05, cumulative = 0.0106609
smoothSolver:  Solving for omega, Initial residual = 0.000703678, Final residual = 4.41279e-05, No Iterations 5
smoothSolver:  Solving for k, Initial residual = 0.00886416, Final residual = 0.000698375, No Iterations 6
ExecutionTime = 1.21 s  ClockTime = 1 s

scalarTransport execute: age
smoothSolver:  Solving for age, Initial residual = 0.0147341, Final residual = 0.00144226, No Iterations 13

Time = 84

smoothSolver:  Solving for Ux, Initial residual = 0.00966447, Final residual = 0.000681598, No Iterations 6
smoothSolver:  Solving for Uy, Initial residual = 0.00455435, Final residual = 0.00033126, No Iterations 6
GAMG:  Solving for p, Initial residual = 0.00753451, Final residual = 0.000669759, No Iterations 2
time step continuity errors : sum local = 0.00150731, global = 0.000113286, cumulative = 0.0107742
smoothSolver:  Solving for omega, Initial residual = 0.000680073, Final residual = 4.19557e-05, No Iterations 5
smoothSolver:  Solving for k, Initial residual = 0.00857176, Final residual = 0.000672481, No Iterations 6
ExecutionTime = 1.23 s  ClockTime = 1 s

scalarTransport execute: age
smoothSolver:  Solving for age, Initial residual = 0.0150292, Final residual = 0.0014598, No Iterations 13

Time = 85

smoothSolver:  Solving for Ux, Initial residual = 0.00934657, Final residual = 0.000664907, No Iterations 6
smoothSolver:  Solving for Uy, Initial residual = 0.00450298, Final residual = 0.000328104, No Iterations 6
GAMG:  Solving for p, Initial residual = 0.00744661, Final residual = 0.000378778, No Iterations 3
time step continuity errors : sum local = 0.000851901, global = 7.83327e-05, cumulative = 0.0108526
smoothSolver:  Solving for omega, Initial residual = 0.000660238, Final residual = 6.5422e-05, No Iterations 4
smoothSolver:  Solving for k, Initial residual = 0.00828962, Final residual = 0.000648289, No Iterations 6
ExecutionTime = 1.24 s  ClockTime = 1 s

scalarTransport execute: age
smoothSolver:  Solving for age, Initial residual = 0.0150629, Final residual = 0.00147721, No Iterations 13

Time = 86

smoothSolver:  Solving for Ux, Initial residual = 0.00912338, Final residual = 0.000644044, No Iterations 6
smoothSolver:  Solving for Uy, Initial residual = 0.00444834, Final residual = 0.000322304, No Iterations 6
GAMG:  Solving for p, Initial residual = 0.00712809, Final residual = 0.000634306, No Iterations 2
time step continuity errors : sum local = 0.00141971, global = 0.000124979, cumulative = 0.0109775
smoothSolver:  Solving for omega, Initial residual = 0.000652453, Final residual = 6.33422e-05, No Iterations 4
smoothSolver:  Solving for k, Initial residual = 0.00802445, Final residual = 0.000624384, No Iterations 6
ExecutionTime = 1.25 s  ClockTime = 1 s

scalarTransport execute: age
smoothSolver:  Solving for age, Initial residual = 0.0148591, Final residual = 0.00140397, No Iterations 13

Time = 87

smoothSolver:  Solving for Ux, Initial residual = 0.00881255, Final residual = 0.000626249, No Iterations 6
smoothSolver:  Solving for Uy, Initial residual = 0.0044041, Final residual = 0.000320739, No Iterations 6
GAMG:  Solving for p, Initial residual = 0.00710611, Final residual = 0.00037428, No Iterations 3
time step continuity errors : sum local = 0.000838239, global = 6.8899e-05, cumulative = 0.0110464
smoothSolver:  Solving for omega, Initial residual = 0.000637075, Final residual = 6.10823e-05, No Iterations 4
smoothSolver:  Solving for k, Initial residual = 0.00776556, Final residual = 0.00060204, No Iterations 6
ExecutionTime = 1.26 s  ClockTime = 1 s

scalarTransport execute: age
smoothSolver:  Solving for age, Initial residual = 0.0140174, Final residual = 0.00129949, No Iterations 13

Time = 88

smoothSolver:  Solving for Ux, Initial residual = 0.00857907, Final residual = 0.0006025, No Iterations 6
smoothSolver:  Solving for Uy, Initial residual = 0.00438652, Final residual = 0.000318318, No Iterations 6
GAMG:  Solving for p, Initial residual = 0.00687867, Final residual = 0.000583827, No Iterations 2
time step continuity errors : sum local = 0.00130021, global = 0.000121443, cumulative = 0.0111679
smoothSolver:  Solving for omega, Initial residual = 0.000632297, Final residual = 5.90506e-05, No Iterations 4
smoothSolver:  Solving for k, Initial residual = 0.00752136, Final residual = 0.00057969, No Iterations 6
ExecutionTime = 1.28 s  ClockTime = 1 s

scalarTransport execute: age
smoothSolver:  Solving for age, Initial residual = 0.0128856, Final residual = 0.00113857, No Iterations 13

Time = 89

smoothSolver:  Solving for Ux, Initial residual = 0.00825937, Final residual = 0.000583911, No Iterations 6
smoothSolver:  Solving for Uy, Initial residual = 0.00435683, Final residual = 0.000317552, No Iterations 6
GAMG:  Solving for p, Initial residual = 0.00696395, Final residual = 0.000668568, No Iterations 2
time step continuity errors : sum local = 0.00148975, global = 0.000198291, cumulative = 0.0113662
smoothSolver:  Solving for omega, Initial residual = 0.000611505, Final residual = 5.69611e-05, No Iterations 4
smoothSolver:  Solving for k, Initial residual = 0.00727642, Final residual = 0.000558431, No Iterations 6
ExecutionTime = 1.29 s  ClockTime = 1 s

scalarTransport execute: age
smoothSolver:  Solving for age, Initial residual = 0.011749, Final residual = 0.00116393, No Iterations 12

Time = 90

smoothSolver:  Solving for Ux, Initial residual = 0.0079426, Final residual = 0.000558365, No Iterations 6
smoothSolver:  Solving for Uy, Initial residual = 0.00435737, Final residual = 0.000317196, No Iterations 6
GAMG:  Solving for p, Initial residual = 0.00689933, Final residual = 0.000651915, No Iterations 2
time step continuity errors : sum local = 0.00145007, global = 0.000204145, cumulative = 0.0115703
smoothSolver:  Solving for omega, Initial residual = 0.000600589, Final residual = 5.50895e-05, No Iterations 4
smoothSolver:  Solving for k, Initial residual = 0.00704533, Final residual = 0.000538034, No Iterations 6
ExecutionTime = 1.3 s  ClockTime = 1 s

scalarTransport execute: age
smoothSolver:  Solving for age, Initial residual = 0.0107511, Final residual = 0.0010547, No Iterations 12

Time = 91

smoothSolver:  Solving for Ux, Initial residual = 0.0076872, Final residual = 0.000537463, No Iterations 6
smoothSolver:  Solving for Uy, Initial residual = 0.00433925, Final residual = 0.000315042, No Iterations 6
GAMG:  Solving for p, Initial residual = 0.00683093, Final residual = 0.000589512, No Iterations 2
time step continuity errors : sum local = 0.0013074, global = 0.000187928, cumulative = 0.0117582
smoothSolver:  Solving for omega, Initial residual = 0.000592001, Final residual = 5.35514e-05, No Iterations 4
smoothSolver:  Solving for k, Initial residual = 0.00682771, Final residual = 0.000518114, No Iterations 6
ExecutionTime = 1.32 s  ClockTime = 1 s

scalarTransport execute: age
smoothSolver:  Solving for age, Initial residual = 0.00994539, Final residual = 0.000980143, No Iterations 12

Time = 92

smoothSolver:  Solving for Ux, Initial residual = 0.0074491, Final residual = 0.000520208, No Iterations 6
smoothSolver:  Solving for Uy, Initial residual = 0.00431127, Final residual = 0.000311349, No Iterations 6
GAMG:  Solving for p, Initial residual = 0.00668851, Final residual = 0.000553817, No Iterations 2
time step continuity errors : sum local = 0.00122073, global = 0.000188242, cumulative = 0.0119465
smoothSolver:  Solving for omega, Initial residual = 0.000587648, Final residual = 5.20205e-05, No Iterations 4
smoothSolver:  Solving for k, Initial residual = 0.00661569, Final residual = 0.000498722, No Iterations 6
ExecutionTime = 1.33 s  ClockTime = 1 s

scalarTransport execute: age
smoothSolver:  Solving for age, Initial residual = 0.00936633, Final residual = 0.000906925, No Iterations 12

Time = 93

smoothSolver:  Solving for Ux, Initial residual = 0.00718091, Final residual = 0.00050087, No Iterations 6
smoothSolver:  Solving for Uy, Initial residual = 0.00427517, Final residual = 0.000307072, No Iterations 6
GAMG:  Solving for p, Initial residual = 0.00659489, Final residual = 0.000545894, No Iterations 2
time step continuity errors : sum local = 0.00119675, global = 0.000194608, cumulative = 0.0121411
smoothSolver:  Solving for omega, Initial residual = 0.000581099, Final residual = 5.05002e-05, No Iterations 4
smoothSolver:  Solving for k, Initial residual = 0.00640953, Final residual = 0.000479926, No Iterations 6
ExecutionTime = 1.34 s  ClockTime = 1 s

scalarTransport execute: age
smoothSolver:  Solving for age, Initial residual = 0.00888413, Final residual = 0.000839849, No Iterations 12

Time = 94

smoothSolver:  Solving for Ux, Initial residual = 0.00691234, Final residual = 0.000479797, No Iterations 6
smoothSolver:  Solving for Uy, Initial residual = 0.0042354, Final residual = 0.000301849, No Iterations 6
GAMG:  Solving for p, Initial residual = 0.00649112, Final residual = 0.000537476, No Iterations 2
time step continuity errors : sum local = 0.00117226, global = 0.000197075, cumulative = 0.0123382
smoothSolver:  Solving for omega, Initial residual = 0.000578055, Final residual = 4.91152e-05, No Iterations 4
smoothSolver:  Solving for k, Initial residual = 0.00620972, Final residual = 0.000461617, No Iterations 6
ExecutionTime = 1.36 s  ClockTime = 1 s

scalarTransport execute: age
smoothSolver:  Solving for age, Initial residual = 0.00850765, Final residual = 0.000776319, No Iterations 12

Time = 95

smoothSolver:  Solving for Ux, Initial residual = 0.00664152, Final residual = 0.000457801, No Iterations 6
smoothSolver:  Solving for Uy, Initial residual = 0.00419683, Final residual = 0.000296233, No Iterations 6
GAMG:  Solving for p, Initial residual = 0.00635424, Final residual = 0.000519009, No Iterations 2
time step continuity errors : sum local = 0.00112586, global = 0.00019773, cumulative = 0.0125359
smoothSolver:  Solving for omega, Initial residual = 0.000576238, Final residual = 4.78438e-05, No Iterations 4
smoothSolver:  Solving for k, Initial residual = 0.00601641, Final residual = 0.00044375, No Iterations 6
ExecutionTime = 1.37 s  ClockTime = 2 s

scalarTransport execute: age
smoothSolver:  Solving for age, Initial residual = 0.00820006, Final residual = 0.000721755, No Iterations 12

Time = 96

smoothSolver:  Solving for Ux, Initial residual = 0.00636099, Final residual = 0.000435585, No Iterations 6
[...]

Time = 650

smoothSolver:  Solving for Ux, Initial residual = 4.90623e-07, Final residual = 3.73069e-08, No Iterations 5
smoothSolver:  Solving for Uy, Initial residual = 3.80842e-07, Final residual = 3.32462e-08, No Iterations 5
GAMG:  Solving for p, Initial residual = 1.40854e-06, Final residual = 9.30628e-08, No Iterations 2
time step continuity errors : sum local = 1.85246e-07, global = 2.59355e-08, cumulative = 0.0226204
smoothSolver:  Solving for omega, Initial residual = 4.23065e-08, Final residual = 5.74261e-09, No Iterations 3
smoothSolver:  Solving for k, Initial residual = 6.89659e-08, Final residual = 7.84065e-09, No Iterations 4
ExecutionTime = 8.93 s  ClockTime = 9 s

scalarTransport execute: age
smoothSolver:  Solving for age, Initial residual = 0.00031369, Final residual = 3.08395e-05, No Iterations 14

Time = 651

smoothSolver:  Solving for Ux, Initial residual = 4.83283e-07, Final residual = 3.68285e-08, No Iterations 5
smoothSolver:  Solving for Uy, Initial residual = 3.77009e-07, Final residual = 3.29219e-08, No Iterations 5
GAMG:  Solving for p, Initial residual = 1.40065e-06, Final residual = 1.0409e-07, No Iterations 2
time step continuity errors : sum local = 2.07197e-07, global = 2.94342e-08, cumulative = 0.0226204
smoothSolver:  Solving for omega, Initial residual = 4.19967e-08, Final residual = 9.90633e-09, No Iterations 2
smoothSolver:  Solving for k, Initial residual = 6.83948e-08, Final residual = 7.73916e-09, No Iterations 4
ExecutionTime = 8.95 s  ClockTime = 9 s

scalarTransport execute: age
smoothSolver:  Solving for age, Initial residual = 0.000313163, Final residual = 3.0788e-05, No Iterations 14

Time = 652

smoothSolver:  Solving for Ux, Initial residual = 4.75953e-07, Final residual = 3.62776e-08, No Iterations 5
smoothSolver:  Solving for Uy, Initial residual = 3.71703e-07, Final residual = 3.24828e-08, No Iterations 5
GAMG:  Solving for p, Initial residual = 1.41571e-06, Final residual = 9.86317e-08, No Iterations 2
time step continuity errors : sum local = 1.96332e-07, global = 2.908e-08, cumulative = 0.0226204
smoothSolver:  Solving for omega, Initial residual = 4.22546e-08, Final residual = 5.71246e-09, No Iterations 3
smoothSolver:  Solving for k, Initial residual = 6.68119e-08, Final residual = 7.62246e-09, No Iterations 4
ExecutionTime = 8.97 s  ClockTime = 9 s

scalarTransport execute: age
smoothSolver:  Solving for age, Initial residual = 0.000312616, Final residual = 3.07342e-05, No Iterations 14

Time = 653

smoothSolver:  Solving for Ux, Initial residual = 4.68079e-07, Final residual = 3.55615e-08, No Iterations 5
smoothSolver:  Solving for Uy, Initial residual = 3.62021e-07, Final residual = 3.14431e-08, No Iterations 5
GAMG:  Solving for p, Initial residual = 1.35224e-06, Final residual = 8.94145e-08, No Iterations 2
time step continuity errors : sum local = 1.77985e-07, global = 2.58263e-08, cumulative = 0.0226204
smoothSolver:  Solving for omega, Initial residual = 4.05472e-08, Final residual = 9.77803e-09, No Iterations 2
smoothSolver:  Solving for k, Initial residual = 6.61042e-08, Final residual = 7.51905e-09, No Iterations 4
ExecutionTime = 8.98 s  ClockTime = 9 s

scalarTransport execute: age
smoothSolver:  Solving for age, Initial residual = 0.000312077, Final residual = 3.06815e-05, No Iterations 14

Time = 654

smoothSolver:  Solving for Ux, Initial residual = 4.60068e-07, Final residual = 3.49836e-08, No Iterations 5
smoothSolver:  Solving for Uy, Initial residual = 3.57033e-07, Final residual = 3.11778e-08, No Iterations 5
GAMG:  Solving for p, Initial residual = 1.32008e-06, Final residual = 8.72578e-08, No Iterations 2
time step continuity errors : sum local = 1.73691e-07, global = 2.42883e-08, cumulative = 0.0226205
smoothSolver:  Solving for omega, Initial residual = 4.07971e-08, Final residual = 9.94172e-09, No Iterations 2
smoothSolver:  Solving for k, Initial residual = 6.53458e-08, Final residual = 7.42954e-09, No Iterations 4
ExecutionTime = 9 s  ClockTime = 9 s

scalarTransport execute: age
smoothSolver:  Solving for age, Initial residual = 0.000311546, Final residual = 3.06295e-05, No Iterations 14

Time = 655

smoothSolver:  Solving for Ux, Initial residual = 4.52958e-07, Final residual = 3.45114e-08, No Iterations 5
smoothSolver:  Solving for Uy, Initial residual = 3.53456e-07, Final residual = 3.08739e-08, No Iterations 5
GAMG:  Solving for p, Initial residual = 1.31348e-06, Final residual = 9.75347e-08, No Iterations 2
time step continuity errors : sum local = 1.94148e-07, global = 2.75686e-08, cumulative = 0.0226205
smoothSolver:  Solving for omega, Initial residual = 4.18192e-08, Final residual = 5.64665e-09, No Iterations 3
smoothSolver:  Solving for k, Initial residual = 6.4493e-08, Final residual = 7.31712e-09, No Iterations 4
ExecutionTime = 9.01 s  ClockTime = 9 s

scalarTransport execute: age
smoothSolver:  Solving for age, Initial residual = 0.000311025, Final residual = 3.05786e-05, No Iterations 14

Time = 656

smoothSolver:  Solving for Ux, Initial residual = 4.46437e-07, Final residual = 3.40278e-08, No Iterations 5
smoothSolver:  Solving for Uy, Initial residual = 3.48522e-07, Final residual = 3.0466e-08, No Iterations 5
GAMG:  Solving for p, Initial residual = 1.32633e-06, Final residual = 9.24448e-08, No Iterations 2
time step continuity errors : sum local = 1.84017e-07, global = 2.72424e-08, cumulative = 0.0226205
smoothSolver:  Solving for omega, Initial residual = 3.97315e-08, Final residual = 9.60414e-09, No Iterations 2
smoothSolver:  Solving for k, Initial residual = 6.30273e-08, Final residual = 7.19316e-09, No Iterations 4
ExecutionTime = 9.03 s  ClockTime = 9 s

scalarTransport execute: age
smoothSolver:  Solving for age, Initial residual = 0.000310485, Final residual = 3.05256e-05, No Iterations 14

Time = 657

smoothSolver:  Solving for Ux, Initial residual = 4.38812e-07, Final residual = 3.33313e-08, No Iterations 5
smoothSolver:  Solving for Uy, Initial residual = 3.39511e-07, Final residual = 2.94945e-08, No Iterations 5
GAMG:  Solving for p, Initial residual = 1.26767e-06, Final residual = 8.38211e-08, No Iterations 2
time step continuity errors : sum local = 1.66851e-07, global = 2.42009e-08, cumulative = 0.0226205
smoothSolver:  Solving for omega, Initial residual = 3.97318e-08, Final residual = 9.69538e-09, No Iterations 2
smoothSolver:  Solving for k, Initial residual = 6.23649e-08, Final residual = 7.09759e-09, No Iterations 4
ExecutionTime = 9.04 s  ClockTime = 9 s

scalarTransport execute: age
smoothSolver:  Solving for age, Initial residual = 0.000309954, Final residual = 3.04734e-05, No Iterations 14

Time = 658

smoothSolver:  Solving for Ux, Initial residual = 4.31396e-07, Final residual = 3.27982e-08, No Iterations 5
smoothSolver:  Solving for Uy, Initial residual = 3.34877e-07, Final residual = 2.92477e-08, No Iterations 5
GAMG:  Solving for p, Initial residual = 1.23788e-06, Final residual = 8.18075e-08, No Iterations 2
time step continuity errors : sum local = 1.62843e-07, global = 2.27639e-08, cumulative = 0.0226206
smoothSolver:  Solving for omega, Initial residual = 3.94782e-08, Final residual = 9.71789e-09, No Iterations 2
smoothSolver:  Solving for k, Initial residual = 6.15176e-08, Final residual = 6.99963e-09, No Iterations 4
ExecutionTime = 9.05 s  ClockTime = 9 s

scalarTransport execute: age
smoothSolver:  Solving for age, Initial residual = 0.000309429, Final residual = 3.04218e-05, No Iterations 14

Time = 659

smoothSolver:  Solving for Ux, Initial residual = 4.24815e-07, Final residual = 3.23605e-08, No Iterations 5
smoothSolver:  Solving for Uy, Initial residual = 3.31574e-07, Final residual = 2.89651e-08, No Iterations 5
GAMG:  Solving for p, Initial residual = 1.23113e-06, Final residual = 9.1434e-08, No Iterations 2
time step continuity errors : sum local = 1.82005e-07, global = 2.58488e-08, cumulative = 0.0226206
smoothSolver:  Solving for omega, Initial residual = 4.01118e-08, Final residual = 9.70127e-09, No Iterations 2
smoothSolver:  Solving for k, Initial residual = 6.08439e-08, Final residual = 6.89571e-09, No Iterations 4
ExecutionTime = 9.07 s  ClockTime = 9 s

scalarTransport execute: age
smoothSolver:  Solving for age, Initial residual = 0.000308914, Final residual = 3.0371e-05, No Iterations 14

Time = 660

smoothSolver:  Solving for Ux, Initial residual = 4.18499e-07, Final residual = 3.18851e-08, No Iterations 5
smoothSolver:  Solving for Uy, Initial residual = 3.26972e-07, Final residual = 2.85814e-08, No Iterations 5
GAMG:  Solving for p, Initial residual = 1.24411e-06, Final residual = 8.6627e-08, No Iterations 2
time step continuity errors : sum local = 1.72436e-07, global = 2.55388e-08, cumulative = 0.0226206
smoothSolver:  Solving for omega, Initial residual = 3.94696e-08, Final residual = 9.67512e-09, No Iterations 2
smoothSolver:  Solving for k, Initial residual = 5.94186e-08, Final residual = 6.77967e-09, No Iterations 4
ExecutionTime = 9.08 s  ClockTime = 9 s

scalarTransport execute: age
smoothSolver:  Solving for age, Initial residual = 0.000308382, Final residual = 3.03183e-05, No Iterations 14

Time = 661

smoothSolver:  Solving for Ux, Initial residual = 4.11482e-07, Final residual = 3.1241e-08, No Iterations 5
smoothSolver:  Solving for Uy, Initial residual = 3.18499e-07, Final residual = 2.76666e-08, No Iterations 5
GAMG:  Solving for p, Initial residual = 1.18878e-06, Final residual = 7.85708e-08, No Iterations 2
time step continuity errors : sum local = 1.564e-07, global = 2.26871e-08, cumulative = 0.0226206
smoothSolver:  Solving for omega, Initial residual = 3.88372e-08, Final residual = 9.59546e-09, No Iterations 2
smoothSolver:  Solving for k, Initial residual = 5.86397e-08, Final residual = 6.67569e-09, No Iterations 4
ExecutionTime = 9.1 s  ClockTime = 9 s

scalarTransport execute: age
smoothSolver:  Solving for age, Initial residual = 0.000307858, Final residual = 3.02664e-05, No Iterations 14

Time = 662

smoothSolver:  Solving for Ux, Initial residual = 4.04591e-07, Final residual = 3.07455e-08, No Iterations 5
smoothSolver:  Solving for Uy, Initial residual = 3.14143e-07, Final residual = 2.74345e-08, No Iterations 5
GAMG:  Solving for p, Initial residual = 1.16025e-06, Final residual = 7.6711e-08, No Iterations 2
time step continuity errors : sum local = 1.52698e-07, global = 2.13552e-08, cumulative = 0.0226207
smoothSolver:  Solving for omega, Initial residual = 3.81974e-08, Final residual = 9.50343e-09, No Iterations 2
smoothSolver:  Solving for k, Initial residual = 5.77358e-08, Final residual = 6.57174e-09, No Iterations 4
ExecutionTime = 9.11 s  ClockTime = 9 s

scalarTransport execute: age
smoothSolver:  Solving for age, Initial residual = 0.00030734, Final residual = 3.02151e-05, No Iterations 14

Time = 663

smoothSolver:  Solving for Ux, Initial residual = 3.98458e-07, Final residual = 3.03382e-08, No Iterations 5
smoothSolver:  Solving for Uy, Initial residual = 3.11043e-07, Final residual = 2.71685e-08, No Iterations 5
GAMG:  Solving for p, Initial residual = 1.1543e-06, Final residual = 8.57285e-08, No Iterations 2
time step continuity errors : sum local = 1.70648e-07, global = 2.42673e-08, cumulative = 0.0226207
smoothSolver:  Solving for omega, Initial residual = 3.85133e-08, Final residual = 9.40483e-09, No Iterations 2
smoothSolver:  Solving for k, Initial residual = 5.70211e-08, Final residual = 6.46388e-09, No Iterations 4
ExecutionTime = 9.13 s  ClockTime = 9 s

scalarTransport execute: age
smoothSolver:  Solving for age, Initial residual = 0.000306832, Final residual = 3.01648e-05, No Iterations 14

Time = 664

smoothSolver:  Solving for Ux, Initial residual = 3.9257e-07, Final residual = 2.98947e-08, No Iterations 5
smoothSolver:  Solving for Uy, Initial residual = 3.06734e-07, Final residual = 2.68075e-08, No Iterations 5
GAMG:  Solving for p, Initial residual = 1.16624e-06, Final residual = 8.12085e-08, No Iterations 2
time step continuity errors : sum local = 1.61651e-07, global = 2.39674e-08, cumulative = 0.0226207
smoothSolver:  Solving for omega, Initial residual = 3.77263e-08, Final residual = 9.31672e-09, No Iterations 2
smoothSolver:  Solving for k, Initial residual = 5.5625e-08, Final residual = 6.34679e-09, No Iterations 4
ExecutionTime = 9.14 s  ClockTime = 9 s

scalarTransport execute: age
smoothSolver:  Solving for age, Initial residual = 0.000306308, Final residual = 3.01127e-05, No Iterations 14

Time = 665

smoothSolver:  Solving for Ux, Initial residual = 3.86023e-07, Final residual = 2.92953e-08, No Iterations 5
smoothSolver:  Solving for Uy, Initial residual = 2.98789e-07, Final residual = 2.59481e-08, No Iterations 5
GAMG:  Solving for p, Initial residual = 1.11437e-06, Final residual = 7.36487e-08, No Iterations 2
time step continuity errors : sum local = 1.46602e-07, global = 2.12897e-08, cumulative = 0.0226207
smoothSolver:  Solving for omega, Initial residual = 3.69731e-08, Final residual = 9.19197e-09, No Iterations 2
smoothSolver:  Solving for k, Initial residual = 5.48519e-08, Final residual = 6.24236e-09, No Iterations 4
ExecutionTime = 9.16 s  ClockTime = 9 s

scalarTransport execute: age
smoothSolver:  Solving for age, Initial residual = 0.000305791, Final residual = 3.00614e-05, No Iterations 14

Time = 666

smoothSolver:  Solving for Ux, Initial residual = 3.7961e-07, Final residual = 2.88352e-08, No Iterations 5
smoothSolver:  Solving for Uy, Initial residual = 2.94724e-07, Final residual = 2.57304e-08, No Iterations 5
GAMG:  Solving for p, Initial residual = 1.08783e-06, Final residual = 7.19103e-08, No Iterations 2
time step continuity errors : sum local = 1.43142e-07, global = 2.00568e-08, cumulative = 0.0226208
smoothSolver:  Solving for omega, Initial residual = 3.62614e-08, Final residual = 9.06655e-09, No Iterations 2
smoothSolver:  Solving for k, Initial residual = 5.39729e-08, Final residual = 6.1393e-09, No Iterations 4
ExecutionTime = 9.17 s  ClockTime = 9 s

scalarTransport execute: age
smoothSolver:  Solving for age, Initial residual = 0.00030528, Final residual = 3.00108e-05, No Iterations 14

Time = 667

smoothSolver:  Solving for Ux, Initial residual = 3.73895e-07, Final residual = 2.84571e-08, No Iterations 5
smoothSolver:  Solving for Uy, Initial residual = 2.91822e-07, Final residual = 2.54795e-08, No Iterations 5
GAMG:  Solving for p, Initial residual = 1.08223e-06, Final residual = 8.03639e-08, No Iterations 2
time step continuity errors : sum local = 1.5997e-07, global = 2.28109e-08, cumulative = 0.0226208
smoothSolver:  Solving for omega, Initial residual = 3.64577e-08, Final residual = 8.94317e-09, No Iterations 2
smoothSolver:  Solving for k, Initial residual = 5.32783e-08, Final residual = 6.03374e-09, No Iterations 4
ExecutionTime = 9.19 s  ClockTime = 9 s

scalarTransport execute: age
smoothSolver:  Solving for age, Initial residual = 0.000304777, Final residual = 2.99612e-05, No Iterations 14

Time = 668

smoothSolver:  Solving for Ux, Initial residual = 3.68388e-07, Final residual = 2.80433e-08, No Iterations 5
smoothSolver:  Solving for Uy, Initial residual = 2.87768e-07, Final residual = 2.51382e-08, No Iterations 5
GAMG:  Solving for p, Initial residual = 1.09364e-06, Final residual = 7.61286e-08, No Iterations 2
time step continuity errors : sum local = 1.51539e-07, global = 2.25136e-08, cumulative = 0.0226208
smoothSolver:  Solving for omega, Initial residual = 3.5673e-08, Final residual = 8.83682e-09, No Iterations 2
smoothSolver:  Solving for k, Initial residual = 5.19514e-08, Final residual = 9.94944e-09, No Iterations 3
ExecutionTime = 9.2 s  ClockTime = 9 s

scalarTransport execute: age
smoothSolver:  Solving for age, Initial residual = 0.000304259, Final residual = 2.99098e-05, No Iterations 14

Time = 669

smoothSolver:  Solving for Ux, Initial residual = 3.62356e-07, Final residual = 2.74956e-08, No Iterations 5
smoothSolver:  Solving for Uy, Initial residual = 2.80275e-07, Final residual = 2.43289e-08, No Iterations 5
GAMG:  Solving for p, Initial residual = 1.04383e-06, Final residual = 6.90044e-08, No Iterations 2
time step continuity errors : sum local = 1.37358e-07, global = 1.99837e-08, cumulative = 0.0226208
smoothSolver:  Solving for omega, Initial residual = 3.47601e-08, Final residual = 8.68217e-09, No Iterations 2
smoothSolver:  Solving for k, Initial residual = 5.15906e-08, Final residual = 9.85761e-09, No Iterations 3
ExecutionTime = 9.22 s  ClockTime = 9 s

scalarTransport execute: age
smoothSolver:  Solving for age, Initial residual = 0.000303748, Final residual = 2.98592e-05, No Iterations 14

Time = 670

smoothSolver:  Solving for Ux, Initial residual = 3.56399e-07, Final residual = 2.70742e-08, No Iterations 5
smoothSolver:  Solving for Uy, Initial residual = 2.76471e-07, Final residual = 2.41235e-08, No Iterations 5
GAMG:  Solving for p, Initial residual = 1.01865e-06, Final residual = 6.73659e-08, No Iterations 2
time step continuity errors : sum local = 1.34096e-07, global = 1.88378e-08, cumulative = 0.0226208
smoothSolver:  Solving for omega, Initial residual = 3.40228e-08, Final residual = 8.54547e-09, No Iterations 2
smoothSolver:  Solving for k, Initial residual = 5.11117e-08, Final residual = 9.76854e-09, No Iterations 3
ExecutionTime = 9.23 s  ClockTime = 9 s

scalarTransport execute: age
smoothSolver:  Solving for age, Initial residual = 0.000303242, Final residual = 2.98094e-05, No Iterations 14

Time = 671

smoothSolver:  Solving for Ux, Initial residual = 3.51078e-07, Final residual = 2.67277e-08, No Iterations 5
smoothSolver:  Solving for Uy, Initial residual = 2.73792e-07, Final residual = 2.3889e-08, No Iterations 5
GAMG:  Solving for p, Initial residual = 1.01385e-06, Final residual = 7.53259e-08, No Iterations 2
time step continuity errors : sum local = 1.49941e-07, global = 2.14455e-08, cumulative = 0.0226209
smoothSolver:  Solving for omega, Initial residual = 3.41835e-08, Final residual = 8.41835e-09, No Iterations 2
smoothSolver:  Solving for k, Initial residual = 5.07869e-08, Final residual = 9.67324e-09, No Iterations 3
ExecutionTime = 9.24 s  ClockTime = 9 s

scalarTransport execute: age
smoothSolver:  Solving for age, Initial residual = 0.000302744, Final residual = 2.97605e-05, No Iterations 14

Time = 672

smoothSolver:  Solving for Ux, Initial residual = 3.45928e-07, Final residual = 2.63464e-08, No Iterations 5
smoothSolver:  Solving for Uy, Initial residual = 2.70007e-07, Final residual = 2.35699e-08, No Iterations 5
GAMG:  Solving for p, Initial residual = 1.02497e-06, Final residual = 7.13838e-08, No Iterations 2
time step continuity errors : sum local = 1.42094e-07, global = 2.1173e-08, cumulative = 0.0226209
smoothSolver:  Solving for omega, Initial residual = 3.34085e-08, Final residual = 8.31183e-09, No Iterations 2
smoothSolver:  Solving for k, Initial residual = 4.98454e-08, Final residual = 9.56323e-09, No Iterations 3
ExecutionTime = 9.26 s  ClockTime = 9 s

scalarTransport execute: age
smoothSolver:  Solving for age, Initial residual = 0.000302233, Final residual = 2.97102e-05, No Iterations 14

Time = 673

smoothSolver:  Solving for Ux, Initial residual = 3.40231e-07, Final residual = 2.58283e-08, No Iterations 5
smoothSolver:  Solving for Uy, Initial residual = 2.62981e-07, Final residual = 2.28132e-08, No Iterations 5
GAMG:  Solving for p, Initial residual = 9.79419e-07, Final residual = 6.47016e-08, No Iterations 2
time step continuity errors : sum local = 1.28793e-07, global = 1.87923e-08, cumulative = 0.0226209
smoothSolver:  Solving for omega, Initial residual = 3.27078e-08, Final residual = 8.18127e-09, No Iterations 2
smoothSolver:  Solving for k, Initial residual = 4.94437e-08, Final residual = 9.46954e-09, No Iterations 3
ExecutionTime = 9.27 s  ClockTime = 9 s


SIMPLE solution converged in 673 iterations

scalarTransport execute: age
smoothSolver:  Solving for age, Initial residual = 0.000301732, Final residual = 2.96607e-05, No Iterations 14

End

