/*---------------------------------------------------------------------------*\
| =========                 |                                                 |
| \\      /  F ield         | OpenFOAM: The Open Source CFD Toolbox           |
|  \\    /   O peration     | Version:  v2012                                 |
|   \\  /    A nd           | Website:  www.openfoam.com                      |
|    \\/     M anipulation  |                                                 |
\*---------------------------------------------------------------------------*/
Build  : _7bdb509494-20201222 OPENFOAM=2012
Arch   : "LSB;label=32;scalar=64"
Exec   : simpleFoam
Date   : Feb 23 2023
Time   : 10:29:09
Host   : johnsDesktop
PID    : 32521
I/O    : uncollated
Case   : /home/john/of_runs/cases/0_86_683_2
nProcs : 1
trapFpe: Floating point exception trapping enabled (FOAM_SIGFPE).
fileModificationChecking : Monitoring run-time modified files using timeStampMaster (fileModificationSkew 5, maxFileModificationPolls 20)
allowSystemOperations : Allowing user-supplied system call operations

// * * * * * * * * * * * * * * * * * * * * * * * * * * * * * * * * * * * * * //
Create time

Create mesh for time = 0


SIMPLE: convergence criteria
    field p	 tolerance 1e-06
    field U	 tolerance 1e-06
    field "(k|epsilon|omega|f|v2|age)"	 tolerance 1e-05

Reading field p

Reading field U

Reading/calculating face flux field phi

Selecting incompressible transport model Newtonian
Selecting turbulence model type RAS
Selecting RAS turbulence model kOmegaSST
Selecting patchDistMethod meshWave
RAS
{
    RASModel        kOmegaSST;
    turbulence      on;
    printCoeffs     on;
    alphaK1         0.85;
    alphaK2         1;
    alphaOmega1     0.5;
    alphaOmega2     0.856;
    gamma1          0.555556;
    gamma2          0.44;
    beta1           0.075;
    beta2           0.0828;
    betaStar        0.09;
    a1              0.31;
    b1              1;
    c1              10;
    F3              false;
    decayControl    false;
    kInf            0;
    omegaInf        0;
}

No MRF models present

No finite volume options present

Starting time loop

Selecting finite volume options type scalarSemiImplicitSource
    Source: unitySource
    - selecting all cells
    - selected 6018 cell(s) with volume 0.03157
Time = 1

smoothSolver:  Solving for Ux, Initial residual = 0, Final residual = 0, No Iterations 0
smoothSolver:  Solving for Uy, Initial residual = 1, Final residual = 0.0358306, No Iterations 2
GAMG:  Solving for p, Initial residual = 1, Final residual = 0.0885953, No Iterations 9
time step continuity errors : sum local = 0.00561263, global = -0.000210406, cumulative = -0.000210406
smoothSolver:  Solving for omega, Initial residual = 0.136864, Final residual = 0.00693953, No Iterations 3
smoothSolver:  Solving for k, Initial residual = 1, Final residual = 0.0714175, No Iterations 3
ExecutionTime = 0.05 s  ClockTime = 0 s

scalarTransport execute: age
smoothSolver:  Solving for age, Initial residual = 1, Final residual = 0.0948796, No Iterations 6

Time = 2

smoothSolver:  Solving for Ux, Initial residual = 0.430033, Final residual = 0.0368714, No Iterations 5
smoothSolver:  Solving for Uy, Initial residual = 0.241485, Final residual = 0.0165862, No Iterations 5
GAMG:  Solving for p, Initial residual = 0.0750326, Final residual = 0.00724152, No Iterations 3
time step continuity errors : sum local = 0.0505152, global = 0.00359538, cumulative = 0.00338497
smoothSolver:  Solving for omega, Initial residual = 0.074021, Final residual = 0.00568514, No Iterations 3
smoothSolver:  Solving for k, Initial residual = 0.517462, Final residual = 0.0343975, No Iterations 4
ExecutionTime = 0.06 s  ClockTime = 0 s

scalarTransport execute: age
smoothSolver:  Solving for age, Initial residual = 0.517805, Final residual = 0.0510522, No Iterations 6

Time = 3

smoothSolver:  Solving for Ux, Initial residual = 0.220646, Final residual = 0.0209963, No Iterations 4
smoothSolver:  Solving for Uy, Initial residual = 0.110438, Final residual = 0.00941007, No Iterations 4
GAMG:  Solving for p, Initial residual = 0.0659013, Final residual = 0.00541401, No Iterations 3
time step continuity errors : sum local = 0.0305204, global = 0.00428871, cumulative = 0.00767368
smoothSolver:  Solving for omega, Initial residual = 0.0271641, Final residual = 0.00190486, No Iterations 4
smoothSolver:  Solving for k, Initial residual = 0.337251, Final residual = 0.0292245, No Iterations 4
ExecutionTime = 0.08 s  ClockTime = 0 s

scalarTransport execute: age
smoothSolver:  Solving for age, Initial residual = 0.31332, Final residual = 0.028374, No Iterations 7

Time = 4

smoothSolver:  Solving for Ux, Initial residual = 0.146011, Final residual = 0.01122, No Iterations 4
smoothSolver:  Solving for Uy, Initial residual = 0.0832489, Final residual = 0.00673345, No Iterations 4
GAMG:  Solving for p, Initial residual = 0.0677464, Final residual = 0.0056084, No Iterations 2
time step continuity errors : sum local = 0.0258733, global = 0.00371434, cumulative = 0.011388
smoothSolver:  Solving for omega, Initial residual = 0.0190097, Final residual = 0.00127497, No Iterations 4
smoothSolver:  Solving for k, Initial residual = 0.254345, Final residual = 0.025017, No Iterations 4
ExecutionTime = 0.09 s  ClockTime = 0 s

scalarTransport execute: age
smoothSolver:  Solving for age, Initial residual = 0.214067, Final residual = 0.0200548, No Iterations 7

Time = 5

smoothSolver:  Solving for Ux, Initial residual = 0.124312, Final residual = 0.00982238, No Iterations 4
smoothSolver:  Solving for Uy, Initial residual = 0.0758085, Final residual = 0.00700467, No Iterations 4
GAMG:  Solving for p, Initial residual = 0.065601, Final residual = 0.00313285, No Iterations 3
time step continuity errors : sum local = 0.0146804, global = 0.000963459, cumulative = 0.0123515
smoothSolver:  Solving for omega, Initial residual = 0.0127879, Final residual = 0.000863625, No Iterations 4
smoothSolver:  Solving for k, Initial residual = 0.195092, Final residual = 0.012279, No Iterations 5
ExecutionTime = 0.1 s  ClockTime = 0 s

scalarTransport execute: age
smoothSolver:  Solving for age, Initial residual = 0.159416, Final residual = 0.0147637, No Iterations 8

Time = 6

smoothSolver:  Solving for Ux, Initial residual = 0.114376, Final residual = 0.0100658, No Iterations 4
smoothSolver:  Solving for Uy, Initial residual = 0.06972, Final residual = 0.00452743, No Iterations 5
GAMG:  Solving for p, Initial residual = 0.0566272, Final residual = 0.00257706, No Iterations 3
time step continuity errors : sum local = 0.0122592, global = 0.000136387, cumulative = 0.0124879
smoothSolver:  Solving for omega, Initial residual = 0.00964058, Final residual = 0.000615797, No Iterations 4
smoothSolver:  Solving for k, Initial residual = 0.153519, Final residual = 0.0100602, No Iterations 5
ExecutionTime = 0.11 s  ClockTime = 0 s

scalarTransport execute: age
smoothSolver:  Solving for age, Initial residual = 0.124004, Final residual = 0.0107058, No Iterations 9

Time = 7

smoothSolver:  Solving for Ux, Initial residual = 0.104748, Final residual = 0.00954199, No Iterations 4
smoothSolver:  Solving for Uy, Initial residual = 0.0673996, Final residual = 0.00457138, No Iterations 5
GAMG:  Solving for p, Initial residual = 0.051783, Final residual = 0.00250804, No Iterations 3
time step continuity errors : sum local = 0.0125465, global = -0.000523898, cumulative = 0.011964
smoothSolver:  Solving for omega, Initial residual = 0.00809705, Final residual = 0.000462982, No Iterations 4
smoothSolver:  Solving for k, Initial residual = 0.125167, Final residual = 0.00826482, No Iterations 5
ExecutionTime = 0.12 s  ClockTime = 0 s

scalarTransport execute: age
smoothSolver:  Solving for age, Initial residual = 0.107963, Final residual = 0.00974563, No Iterations 9

Time = 8

smoothSolver:  Solving for Ux, Initial residual = 0.0971805, Final residual = 0.00894234, No Iterations 4
smoothSolver:  Solving for Uy, Initial residual = 0.0664305, Final residual = 0.00455181, No Iterations 5
GAMG:  Solving for p, Initial residual = 0.0533647, Final residual = 0.00214617, No Iterations 3
time step continuity errors : sum local = 0.0115637, global = -0.000596138, cumulative = 0.0113678
smoothSolver:  Solving for omega, Initial residual = 0.00698762, Final residual = 0.00067124, No Iterations 3
smoothSolver:  Solving for k, Initial residual = 0.105674, Final residual = 0.0068375, No Iterations 5
ExecutionTime = 0.14 s  ClockTime = 0 s

scalarTransport execute: age
smoothSolver:  Solving for age, Initial residual = 0.0992746, Final residual = 0.00917477, No Iterations 9

Time = 9

smoothSolver:  Solving for Ux, Initial residual = 0.0910686, Final residual = 0.00829303, No Iterations 4
smoothSolver:  Solving for Uy, Initial residual = 0.0666018, Final residual = 0.00451581, No Iterations 5
GAMG:  Solving for p, Initial residual = 0.0553429, Final residual = 0.00242604, No Iterations 3
time step continuity errors : sum local = 0.0137246, global = -0.000793565, cumulative = 0.0105743
smoothSolver:  Solving for omega, Initial residual = 0.00658797, Final residual = 0.000583619, No Iterations 3
smoothSolver:  Solving for k, Initial residual = 0.0920976, Final residual = 0.00564176, No Iterations 5
ExecutionTime = 0.15 s  ClockTime = 0 s

scalarTransport execute: age
smoothSolver:  Solving for age, Initial residual = 0.0955689, Final residual = 0.00873963, No Iterations 9

Time = 10

smoothSolver:  Solving for Ux, Initial residual = 0.0872664, Final residual = 0.00784371, No Iterations 4
smoothSolver:  Solving for Uy, Initial residual = 0.0659337, Final residual = 0.00440775, No Iterations 5
GAMG:  Solving for p, Initial residual = 0.0575177, Final residual = 0.00279169, No Iterations 3
time step continuity errors : sum local = 0.0159682, global = -0.00065291, cumulative = 0.00992135
smoothSolver:  Solving for omega, Initial residual = 0.00644672, Final residual = 0.000532636, No Iterations 3
smoothSolver:  Solving for k, Initial residual = 0.0819699, Final residual = 0.00777555, No Iterations 4
ExecutionTime = 0.16 s  ClockTime = 0 s

scalarTransport execute: age
smoothSolver:  Solving for age, Initial residual = 0.0954794, Final residual = 0.00853841, No Iterations 9

Time = 11

smoothSolver:  Solving for Ux, Initial residual = 0.0843598, Final residual = 0.00741865, No Iterations 4
smoothSolver:  Solving for Uy, Initial residual = 0.0657052, Final residual = 0.00430607, No Iterations 5
GAMG:  Solving for p, Initial residual = 0.0571563, Final residual = 0.00310023, No Iterations 3
time step continuity errors : sum local = 0.0178433, global = -0.0002428, cumulative = 0.00967855
smoothSolver:  Solving for omega, Initial residual = 0.00671432, Final residual = 0.000498912, No Iterations 3
smoothSolver:  Solving for k, Initial residual = 0.0752844, Final residual = 0.00651404, No Iterations 4
ExecutionTime = 0.17 s  ClockTime = 0 s

scalarTransport execute: age
smoothSolver:  Solving for age, Initial residual = 0.0985132, Final residual = 0.0087271, No Iterations 9

Time = 12

smoothSolver:  Solving for Ux, Initial residual = 0.0817751, Final residual = 0.007003, No Iterations 4
smoothSolver:  Solving for Uy, Initial residual = 0.0651318, Final residual = 0.00413063, No Iterations 5
GAMG:  Solving for p, Initial residual = 0.0591359, Final residual = 0.00305077, No Iterations 3
time step continuity errors : sum local = 0.0177013, global = 0.000348925, cumulative = 0.0100275
smoothSolver:  Solving for omega, Initial residual = 0.00674232, Final residual = 0.000467633, No Iterations 3
smoothSolver:  Solving for k, Initial residual = 0.0706928, Final residual = 0.00552778, No Iterations 4
ExecutionTime = 0.18 s  ClockTime = 0 s

scalarTransport execute: age
smoothSolver:  Solving for age, Initial residual = 0.0989346, Final residual = 0.00904053, No Iterations 9

Time = 13

smoothSolver:  Solving for Ux, Initial residual = 0.0778532, Final residual = 0.00659098, No Iterations 4
smoothSolver:  Solving for Uy, Initial residual = 0.064175, Final residual = 0.00635311, No Iterations 4
GAMG:  Solving for p, Initial residual = 0.0588493, Final residual = 0.00280641, No Iterations 3
time step continuity errors : sum local = 0.0166143, global = 0.0009376, cumulative = 0.0109651
smoothSolver:  Solving for omega, Initial residual = 0.00647854, Final residual = 0.0004393, No Iterations 3
smoothSolver:  Solving for k, Initial residual = 0.0685615, Final residual = 0.00477637, No Iterations 4
ExecutionTime = 0.19 s  ClockTime = 0 s

scalarTransport execute: age
smoothSolver:  Solving for age, Initial residual = 0.0995825, Final residual = 0.00949943, No Iterations 9

Time = 14

smoothSolver:  Solving for Ux, Initial residual = 0.0737698, Final residual = 0.00607521, No Iterations 4
smoothSolver:  Solving for Uy, Initial residual = 0.0639445, Final residual = 0.00614988, No Iterations 4
GAMG:  Solving for p, Initial residual = 0.0603663, Final residual = 0.00232464, No Iterations 3
time step continuity errors : sum local = 0.0141161, global = 0.00145254, cumulative = 0.0124176
smoothSolver:  Solving for omega, Initial residual = 0.00649032, Final residual = 0.000418928, No Iterations 3
smoothSolver:  Solving for k, Initial residual = 0.0677848, Final residual = 0.00418578, No Iterations 4
ExecutionTime = 0.21 s  ClockTime = 0 s

scalarTransport execute: age
smoothSolver:  Solving for age, Initial residual = 0.101802, Final residual = 0.00977967, No Iterations 9

Time = 15

smoothSolver:  Solving for Ux, Initial residual = 0.0709375, Final residual = 0.00566157, No Iterations 4
smoothSolver:  Solving for Uy, Initial residual = 0.0631971, Final residual = 0.00588354, No Iterations 4
GAMG:  Solving for p, Initial residual = 0.0622888, Final residual = 0.00195308, No Iterations 3
time step continuity errors : sum local = 0.0119909, global = 0.00135826, cumulative = 0.0137759
smoothSolver:  Solving for omega, Initial residual = 0.00652579, Final residual = 0.000399109, No Iterations 3
smoothSolver:  Solving for k, Initial residual = 0.0671249, Final residual = 0.00670567, No Iterations 3
ExecutionTime = 0.22 s  ClockTime = 0 s

scalarTransport execute: age
smoothSolver:  Solving for age, Initial residual = 0.105031, Final residual = 0.0102211, No Iterations 9

Time = 16

smoothSolver:  Solving for Ux, Initial residual = 0.0692405, Final residual = 0.005267, No Iterations 4
smoothSolver:  Solving for Uy, Initial residual = 0.0619599, Final residual = 0.00556538, No Iterations 4
GAMG:  Solving for p, Initial residual = 0.0654811, Final residual = 0.00645552, No Iterations 2
time step continuity errors : sum local = 0.0395124, global = 0.0021882, cumulative = 0.0159641
smoothSolver:  Solving for omega, Initial residual = 0.0063788, Final residual = 0.000368108, No Iterations 3
smoothSolver:  Solving for k, Initial residual = 0.0655056, Final residual = 0.00616103, No Iterations 3
ExecutionTime = 0.23 s  ClockTime = 0 s

scalarTransport execute: age
smoothSolver:  Solving for age, Initial residual = 0.106257, Final residual = 0.0105033, No Iterations 9

Time = 17

smoothSolver:  Solving for Ux, Initial residual = 0.0683318, Final residual = 0.00498461, No Iterations 4
smoothSolver:  Solving for Uy, Initial residual = 0.060089, Final residual = 0.00522035, No Iterations 4
GAMG:  Solving for p, Initial residual = 0.0686039, Final residual = 0.00685278, No Iterations 2
time step continuity errors : sum local = 0.0424937, global = 0.00377031, cumulative = 0.0197344
smoothSolver:  Solving for omega, Initial residual = 0.00634865, Final residual = 0.000340022, No Iterations 3
smoothSolver:  Solving for k, Initial residual = 0.0653372, Final residual = 0.00563889, No Iterations 3
ExecutionTime = 0.24 s  ClockTime = 0 s

scalarTransport execute: age
smoothSolver:  Solving for age, Initial residual = 0.106346, Final residual = 0.00920051, No Iterations 10

Time = 18

smoothSolver:  Solving for Ux, Initial residual = 0.0663932, Final residual = 0.00456541, No Iterations 4
smoothSolver:  Solving for Uy, Initial residual = 0.0572986, Final residual = 0.00469613, No Iterations 4
GAMG:  Solving for p, Initial residual = 0.0693618, Final residual = 0.00541508, No Iterations 2
time step continuity errors : sum local = 0.0337274, global = 0.00439229, cumulative = 0.0241267
smoothSolver:  Solving for omega, Initial residual = 0.00635061, Final residual = 0.000318885, No Iterations 3
smoothSolver:  Solving for k, Initial residual = 0.0651385, Final residual = 0.00513783, No Iterations 3
ExecutionTime = 0.25 s  ClockTime = 0 s

scalarTransport execute: age
smoothSolver:  Solving for age, Initial residual = 0.106806, Final residual = 0.00951922, No Iterations 10

Time = 19

smoothSolver:  Solving for Ux, Initial residual = 0.0646136, Final residual = 0.00431753, No Iterations 4
smoothSolver:  Solving for Uy, Initial residual = 0.0546923, Final residual = 0.00422002, No Iterations 4
GAMG:  Solving for p, Initial residual = 0.0716251, Final residual = 0.0052257, No Iterations 2
time step continuity errors : sum local = 0.0318579, global = 0.00420466, cumulative = 0.0283313
smoothSolver:  Solving for omega, Initial residual = 0.00601934, Final residual = 0.0002905, No Iterations 3
smoothSolver:  Solving for k, Initial residual = 0.0637728, Final residual = 0.00467045, No Iterations 3
ExecutionTime = 0.26 s  ClockTime = 0 s

scalarTransport execute: age
smoothSolver:  Solving for age, Initial residual = 0.105617, Final residual = 0.00978932, No Iterations 10

Time = 20

smoothSolver:  Solving for Ux, Initial residual = 0.0631625, Final residual = 0.00405675, No Iterations 4
smoothSolver:  Solving for Uy, Initial residual = 0.0521737, Final residual = 0.00380697, No Iterations 4
GAMG:  Solving for p, Initial residual = 0.0748133, Final residual = 0.00573427, No Iterations 2
time step continuity errors : sum local = 0.033995, global = 0.00403691, cumulative = 0.0323682
smoothSolver:  Solving for omega, Initial residual = 0.00569934, Final residual = 0.000262859, No Iterations 3
smoothSolver:  Solving for k, Initial residual = 0.0607571, Final residual = 0.0042776, No Iterations 3
ExecutionTime = 0.27 s  ClockTime = 0 s

scalarTransport execute: age
smoothSolver:  Solving for age, Initial residual = 0.102898, Final residual = 0.00969028, No Iterations 10

Time = 21

smoothSolver:  Solving for Ux, Initial residual = 0.0608916, Final residual = 0.00374061, No Iterations 4
smoothSolver:  Solving for Uy, Initial residual = 0.0496618, Final residual = 0.00340621, No Iterations 4
GAMG:  Solving for p, Initial residual = 0.0756669, Final residual = 0.00593505, No Iterations 2
time step continuity errors : sum local = 0.0340549, global = 0.00388114, cumulative = 0.0362494
smoothSolver:  Solving for omega, Initial residual = 0.00528167, Final residual = 0.000235865, No Iterations 3
smoothSolver:  Solving for k, Initial residual = 0.0565422, Final residual = 0.00398245, No Iterations 3
ExecutionTime = 0.28 s  ClockTime = 0 s

scalarTransport execute: age
smoothSolver:  Solving for age, Initial residual = 0.0982792, Final residual = 0.00925279, No Iterations 10

Time = 22

smoothSolver:  Solving for Ux, Initial residual = 0.0580532, Final residual = 0.00339711, No Iterations 4
smoothSolver:  Solving for Uy, Initial residual = 0.0464397, Final residual = 0.00303822, No Iterations 4
GAMG:  Solving for p, Initial residual = 0.0754471, Final residual = 0.00586835, No Iterations 2
time step continuity errors : sum local = 0.0323873, global = 0.00384359, cumulative = 0.040093
smoothSolver:  Solving for omega, Initial residual = 0.00482636, Final residual = 0.000475979, No Iterations 2
smoothSolver:  Solving for k, Initial residual = 0.0521459, Final residual = 0.00376346, No Iterations 3
ExecutionTime = 0.29 s  ClockTime = 0 s

scalarTransport execute: age
smoothSolver:  Solving for age, Initial residual = 0.0939235, Final residual = 0.00877411, No Iterations 10

Time = 23

smoothSolver:  Solving for Ux, Initial residual = 0.0544769, Final residual = 0.00309713, No Iterations 4
smoothSolver:  Solving for Uy, Initial residual = 0.0433182, Final residual = 0.0027941, No Iterations 4
GAMG:  Solving for p, Initial residual = 0.0743731, Final residual = 0.00559739, No Iterations 2
time step continuity errors : sum local = 0.0296337, global = 0.00358052, cumulative = 0.0436735
smoothSolver:  Solving for omega, Initial residual = 0.00463364, Final residual = 0.000460723, No Iterations 2
smoothSolver:  Solving for k, Initial residual = 0.0487167, Final residual = 0.00362956, No Iterations 3
ExecutionTime = 0.31 s  ClockTime = 0 s

scalarTransport execute: age
smoothSolver:  Solving for age, Initial residual = 0.0909937, Final residual = 0.00833, No Iterations 10

Time = 24

smoothSolver:  Solving for Ux, Initial residual = 0.0507295, Final residual = 0.00284538, No Iterations 4
smoothSolver:  Solving for Uy, Initial residual = 0.0401762, Final residual = 0.00260956, No Iterations 4
GAMG:  Solving for p, Initial residual = 0.07324, Final residual = 0.00513816, No Iterations 2
time step continuity errors : sum local = 0.0258638, global = 0.00284638, cumulative = 0.0465199
smoothSolver:  Solving for omega, Initial residual = 0.0043912, Final residual = 0.000203945, No Iterations 3
smoothSolver:  Solving for k, Initial residual = 0.0466327, Final residual = 0.00352011, No Iterations 3
ExecutionTime = 0.32 s  ClockTime = 0 s

scalarTransport execute: age
smoothSolver:  Solving for age, Initial residual = 0.0883656, Final residual = 0.0080301, No Iterations 10

Time = 25

smoothSolver:  Solving for Ux, Initial residual = 0.0468064, Final residual = 0.00266689, No Iterations 4
smoothSolver:  Solving for Uy, Initial residual = 0.0376881, Final residual = 0.00247485, No Iterations 4
GAMG:  Solving for p, Initial residual = 0.0736704, Final residual = 0.00548551, No Iterations 2
time step continuity errors : sum local = 0.0262481, global = 0.00199533, cumulative = 0.0485152
smoothSolver:  Solving for omega, Initial residual = 0.00389962, Final residual = 0.000191048, No Iterations 3
smoothSolver:  Solving for k, Initial residual = 0.0449537, Final residual = 0.00341634, No Iterations 3
ExecutionTime = 0.33 s  ClockTime = 0 s

scalarTransport execute: age
smoothSolver:  Solving for age, Initial residual = 0.0854564, Final residual = 0.00784156, No Iterations 10

Time = 26

smoothSolver:  Solving for Ux, Initial residual = 0.042996, Final residual = 0.00254057, No Iterations 4
smoothSolver:  Solving for Uy, Initial residual = 0.0359236, Final residual = 0.00241574, No Iterations 4
GAMG:  Solving for p, Initial residual = 0.0724483, Final residual = 0.00577436, No Iterations 2
time step continuity errors : sum local = 0.0268395, global = 0.00115371, cumulative = 0.0496689
smoothSolver:  Solving for omega, Initial residual = 0.00354764, Final residual = 0.000181837, No Iterations 3
smoothSolver:  Solving for k, Initial residual = 0.0435483, Final residual = 0.00333415, No Iterations 3
ExecutionTime = 0.34 s  ClockTime = 0 s

scalarTransport execute: age
smoothSolver:  Solving for age, Initial residual = 0.0825121, Final residual = 0.00758295, No Iterations 10

Time = 27

smoothSolver:  Solving for Ux, Initial residual = 0.0393381, Final residual = 0.00243989, No Iterations 4
smoothSolver:  Solving for Uy, Initial residual = 0.0350112, Final residual = 0.00245112, No Iterations 4
GAMG:  Solving for p, Initial residual = 0.0679784, Final residual = 0.00562281, No Iterations 2
time step continuity errors : sum local = 0.0260256, global = 0.000134194, cumulative = 0.0498031
smoothSolver:  Solving for omega, Initial residual = 0.00334362, Final residual = 0.000176542, No Iterations 3
smoothSolver:  Solving for k, Initial residual = 0.0422691, Final residual = 0.00330805, No Iterations 3
ExecutionTime = 0.35 s  ClockTime = 0 s

scalarTransport execute: age
smoothSolver:  Solving for age, Initial residual = 0.0799042, Final residual = 0.00730357, No Iterations 10

Time = 28

smoothSolver:  Solving for Ux, Initial residual = 0.0358451, Final residual = 0.00230999, No Iterations 4
smoothSolver:  Solving for Uy, Initial residual = 0.0345617, Final residual = 0.00249988, No Iterations 4
GAMG:  Solving for p, Initial residual = 0.0624681, Final residual = 0.00513396, No Iterations 2
time step continuity errors : sum local = 0.0239146, global = -0.000935347, cumulative = 0.0488678
smoothSolver:  Solving for omega, Initial residual = 0.00321429, Final residual = 0.000175334, No Iterations 3
smoothSolver:  Solving for k, Initial residual = 0.0415572, Final residual = 0.00337407, No Iterations 3
ExecutionTime = 0.36 s  ClockTime = 0 s

scalarTransport execute: age
smoothSolver:  Solving for age, Initial residual = 0.0775219, Final residual = 0.00703085, No Iterations 10

Time = 29

smoothSolver:  Solving for Ux, Initial residual = 0.0325546, Final residual = 0.00212278, No Iterations 4
smoothSolver:  Solving for Uy, Initial residual = 0.034195, Final residual = 0.00257223, No Iterations 4
GAMG:  Solving for p, Initial residual = 0.0601411, Final residual = 0.00468819, No Iterations 2
time step continuity errors : sum local = 0.0220919, global = -0.00185746, cumulative = 0.0470103
smoothSolver:  Solving for omega, Initial residual = 0.00312141, Final residual = 0.00017608, No Iterations 3
smoothSolver:  Solving for k, Initial residual = 0.0420407, Final residual = 0.00344113, No Iterations 3
ExecutionTime = 0.37 s  ClockTime = 0 s

scalarTransport execute: age
smoothSolver:  Solving for age, Initial residual = 0.075429, Final residual = 0.00687503, No Iterations 10

Time = 30

smoothSolver:  Solving for Ux, Initial residual = 0.0296994, Final residual = 0.00191403, No Iterations 4
smoothSolver:  Solving for Uy, Initial residual = 0.0338342, Final residual = 0.00267872, No Iterations 4
GAMG:  Solving for p, Initial residual = 0.0583068, Final residual = 0.00451432, No Iterations 2
time step continuity errors : sum local = 0.021482, global = -0.00233749, cumulative = 0.0446728
smoothSolver:  Solving for omega, Initial residual = 0.00304866, Final residual = 0.000174226, No Iterations 3
smoothSolver:  Solving for k, Initial residual = 0.0423274, Final residual = 0.00341849, No Iterations 3
ExecutionTime = 0.38 s  ClockTime = 0 s

scalarTransport execute: age
smoothSolver:  Solving for age, Initial residual = 0.0739658, Final residual = 0.00670399, No Iterations 10

Time = 31

smoothSolver:  Solving for Ux, Initial residual = 0.0269831, Final residual = 0.00171401, No Iterations 4
smoothSolver:  Solving for Uy, Initial residual = 0.0334861, Final residual = 0.00275674, No Iterations 4
GAMG:  Solving for p, Initial residual = 0.0564398, Final residual = 0.00429812, No Iterations 2
time step continuity errors : sum local = 0.0207476, global = -0.00193771, cumulative = 0.0427351
smoothSolver:  Solving for omega, Initial residual = 0.00306468, Final residual = 0.00017134, No Iterations 3
smoothSolver:  Solving for k, Initial residual = 0.0419855, Final residual = 0.00327755, No Iterations 3
ExecutionTime = 0.39 s  ClockTime = 0 s

scalarTransport execute: age
smoothSolver:  Solving for age, Initial residual = 0.0721051, Final residual = 0.00632937, No Iterations 10

Time = 32

smoothSolver:  Solving for Ux, Initial residual = 0.0248184, Final residual = 0.00153433, No Iterations 4
smoothSolver:  Solving for Uy, Initial residual = 0.0322989, Final residual = 0.00273413, No Iterations 4
GAMG:  Solving for p, Initial residual = 0.0538943, Final residual = 0.00484435, No Iterations 2
time step continuity errors : sum local = 0.023963, global = -0.00128252, cumulative = 0.0414526
smoothSolver:  Solving for omega, Initial residual = 0.00307427, Final residual = 0.000165066, No Iterations 3
smoothSolver:  Solving for k, Initial residual = 0.040989, Final residual = 0.00308051, No Iterations 3
ExecutionTime = 0.41 s  ClockTime = 0 s

scalarTransport execute: age
smoothSolver:  Solving for age, Initial residual = 0.0691324, Final residual = 0.005909, No Iterations 10

Time = 33

smoothSolver:  Solving for Ux, Initial residual = 0.0232039, Final residual = 0.00140574, No Iterations 4
smoothSolver:  Solving for Uy, Initial residual = 0.0309763, Final residual = 0.00263216, No Iterations 4
GAMG:  Solving for p, Initial residual = 0.0531723, Final residual = 0.00503279, No Iterations 2
time step continuity errors : sum local = 0.0252416, global = -0.000147366, cumulative = 0.0413052
smoothSolver:  Solving for omega, Initial residual = 0.00304907, Final residual = 0.000155361, No Iterations 3
smoothSolver:  Solving for k, Initial residual = 0.039494, Final residual = 0.00286266, No Iterations 3
ExecutionTime = 0.42 s  ClockTime = 0 s

scalarTransport execute: age
smoothSolver:  Solving for age, Initial residual = 0.0651071, Final residual = 0.0056196, No Iterations 10

Time = 34

smoothSolver:  Solving for Ux, Initial residual = 0.0222946, Final residual = 0.00129641, No Iterations 4
smoothSolver:  Solving for Uy, Initial residual = 0.0293522, Final residual = 0.00243143, No Iterations 4
GAMG:  Solving for p, Initial residual = 0.0512568, Final residual = 0.00450144, No Iterations 2
time step continuity errors : sum local = 0.022794, global = 0.00121441, cumulative = 0.0425196
smoothSolver:  Solving for omega, Initial residual = 0.00284479, Final residual = 0.000142278, No Iterations 3
smoothSolver:  Solving for k, Initial residual = 0.0375155, Final residual = 0.00267514, No Iterations 3
ExecutionTime = 0.43 s  ClockTime = 0 s

scalarTransport execute: age
smoothSolver:  Solving for age, Initial residual = 0.0610675, Final residual = 0.00550397, No Iterations 10

Time = 35

smoothSolver:  Solving for Ux, Initial residual = 0.0217679, Final residual = 0.00122676, No Iterations 4
smoothSolver:  Solving for Uy, Initial residual = 0.0271618, Final residual = 0.00218641, No Iterations 4
GAMG:  Solving for p, Initial residual = 0.0487792, Final residual = 0.0029784, No Iterations 2
time step continuity errors : sum local = 0.0151043, global = 0.00189551, cumulative = 0.0444151
smoothSolver:  Solving for omega, Initial residual = 0.00262889, Final residual = 0.000129403, No Iterations 3
smoothSolver:  Solving for k, Initial residual = 0.0350264, Final residual = 0.00252106, No Iterations 3
ExecutionTime = 0.44 s  ClockTime = 0 s

scalarTransport execute: age
smoothSolver:  Solving for age, Initial residual = 0.0572057, Final residual = 0.00528428, No Iterations 10

Time = 36

smoothSolver:  Solving for Ux, Initial residual = 0.0218097, Final residual = 0.00121895, No Iterations 4
smoothSolver:  Solving for Uy, Initial residual = 0.0247673, Final residual = 0.00191783, No Iterations 4
GAMG:  Solving for p, Initial residual = 0.0466201, Final residual = 0.00287091, No Iterations 2
time step continuity errors : sum local = 0.0142466, global = 0.00143884, cumulative = 0.045854
smoothSolver:  Solving for omega, Initial residual = 0.00252368, Final residual = 0.000119767, No Iterations 3
smoothSolver:  Solving for k, Initial residual = 0.0327115, Final residual = 0.00243004, No Iterations 3
ExecutionTime = 0.45 s  ClockTime = 0 s

scalarTransport execute: age
smoothSolver:  Solving for age, Initial residual = 0.052929, Final residual = 0.00505022, No Iterations 10

Time = 37

smoothSolver:  Solving for Ux, Initial residual = 0.0217225, Final residual = 0.00123163, No Iterations 4
smoothSolver:  Solving for Uy, Initial residual = 0.0234023, Final residual = 0.00171739, No Iterations 4
GAMG:  Solving for p, Initial residual = 0.0466333, Final residual = 0.00249359, No Iterations 2
time step continuity errors : sum local = 0.0117988, global = 0.00145547, cumulative = 0.0473095
smoothSolver:  Solving for omega, Initial residual = 0.00242164, Final residual = 0.000111922, No Iterations 3
smoothSolver:  Solving for k, Initial residual = 0.0310554, Final residual = 0.00234047, No Iterations 3
ExecutionTime = 0.46 s  ClockTime = 0 s

scalarTransport execute: age
smoothSolver:  Solving for age, Initial residual = 0.0493097, Final residual = 0.00484077, No Iterations 10

Time = 38

smoothSolver:  Solving for Ux, Initial residual = 0.0209139, Final residual = 0.00121309, No Iterations 4
smoothSolver:  Solving for Uy, Initial residual = 0.0212753, Final residual = 0.00154702, No Iterations 4
GAMG:  Solving for p, Initial residual = 0.0462445, Final residual = 0.00242738, No Iterations 2
time step continuity errors : sum local = 0.0114077, global = 0.00151206, cumulative = 0.0488215
smoothSolver:  Solving for omega, Initial residual = 0.00245564, Final residual = 0.000237187, No Iterations 2
smoothSolver:  Solving for k, Initial residual = 0.0304274, Final residual = 0.00228284, No Iterations 3
ExecutionTime = 0.47 s  ClockTime = 0 s

scalarTransport execute: age
smoothSolver:  Solving for age, Initial residual = 0.0461063, Final residual = 0.00458017, No Iterations 10

Time = 39

smoothSolver:  Solving for Ux, Initial residual = 0.020285, Final residual = 0.001192, No Iterations 4
smoothSolver:  Solving for Uy, Initial residual = 0.0191359, Final residual = 0.00129175, No Iterations 4
GAMG:  Solving for p, Initial residual = 0.043986, Final residual = 0.00235509, No Iterations 2
time step continuity errors : sum local = 0.0109462, global = 0.00128406, cumulative = 0.0501056
smoothSolver:  Solving for omega, Initial residual = 0.00222275, Final residual = 0.000105231, No Iterations 3
smoothSolver:  Solving for k, Initial residual = 0.0298071, Final residual = 0.00221746, No Iterations 3
ExecutionTime = 0.48 s  ClockTime = 0 s

scalarTransport execute: age
smoothSolver:  Solving for age, Initial residual = 0.0431611, Final residual = 0.00379014, No Iterations 11

Time = 40

smoothSolver:  Solving for Ux, Initial residual = 0.0194283, Final residual = 0.00117829, No Iterations 4
smoothSolver:  Solving for Uy, Initial residual = 0.0175943, Final residual = 0.00112201, No Iterations 4
GAMG:  Solving for p, Initial residual = 0.0419744, Final residual = 0.00237427, No Iterations 2
time step continuity errors : sum local = 0.0109282, global = 0.00106675, cumulative = 0.0511723
smoothSolver:  Solving for omega, Initial residual = 0.00195423, Final residual = 9.58493e-05, No Iterations 3
smoothSolver:  Solving for k, Initial residual = 0.0289203, Final residual = 0.00216142, No Iterations 3
ExecutionTime = 0.49 s  ClockTime = 0 s

scalarTransport execute: age
smoothSolver:  Solving for age, Initial residual = 0.0406303, Final residual = 0.00359531, No Iterations 11

Time = 41

smoothSolver:  Solving for Ux, Initial residual = 0.018516, Final residual = 0.00115437, No Iterations 4
smoothSolver:  Solving for Uy, Initial residual = 0.0166651, Final residual = 0.00105215, No Iterations 4
GAMG:  Solving for p, Initial residual = 0.0407878, Final residual = 0.00260615, No Iterations 2
time step continuity errors : sum local = 0.0119469, global = 0.000939576, cumulative = 0.0521119
smoothSolver:  Solving for omega, Initial residual = 0.00179669, Final residual = 8.87489e-05, No Iterations 3
smoothSolver:  Solving for k, Initial residual = 0.0279057, Final residual = 0.00214469, No Iterations 3
ExecutionTime = 0.51 s  ClockTime = 0 s

scalarTransport execute: age
smoothSolver:  Solving for age, Initial residual = 0.0387075, Final residual = 0.0034596, No Iterations 11

Time = 42

smoothSolver:  Solving for Ux, Initial residual = 0.0178795, Final residual = 0.00111989, No Iterations 4
smoothSolver:  Solving for Uy, Initial residual = 0.0162436, Final residual = 0.00104934, No Iterations 4
GAMG:  Solving for p, Initial residual = 0.0400697, Final residual = 0.0028698, No Iterations 2
time step continuity errors : sum local = 0.0131381, global = 0.000846454, cumulative = 0.0529584
smoothSolver:  Solving for omega, Initial residual = 0.00165791, Final residual = 8.27815e-05, No Iterations 3
smoothSolver:  Solving for k, Initial residual = 0.0270322, Final residual = 0.00213435, No Iterations 3
ExecutionTime = 0.52 s  ClockTime = 0 s

scalarTransport execute: age
smoothSolver:  Solving for age, Initial residual = 0.0377628, Final residual = 0.00333827, No Iterations 11

Time = 43

smoothSolver:  Solving for Ux, Initial residual = 0.0174862, Final residual = 0.00107957, No Iterations 4
smoothSolver:  Solving for Uy, Initial residual = 0.0161718, Final residual = 0.00108544, No Iterations 4
GAMG:  Solving for p, Initial residual = 0.0398056, Final residual = 0.00312205, No Iterations 2
time step continuity errors : sum local = 0.0142984, global = 0.000776966, cumulative = 0.0537353
smoothSolver:  Solving for omega, Initial residual = 0.00157521, Final residual = 7.84364e-05, No Iterations 3
smoothSolver:  Solving for k, Initial residual = 0.0262293, Final residual = 0.00212462, No Iterations 3
ExecutionTime = 0.53 s  ClockTime = 0 s

scalarTransport execute: age
smoothSolver:  Solving for age, Initial residual = 0.0374299, Final residual = 0.00322398, No Iterations 11

Time = 44

smoothSolver:  Solving for Ux, Initial residual = 0.0171189, Final residual = 0.00103429, No Iterations 4
smoothSolver:  Solving for Uy, Initial residual = 0.0162911, Final residual = 0.00112807, No Iterations 4
GAMG:  Solving for p, Initial residual = 0.0400499, Final residual = 0.00332775, No Iterations 2
time step continuity errors : sum local = 0.0152539, global = 0.000719106, cumulative = 0.0544544
smoothSolver:  Solving for omega, Initial residual = 0.00156197, Final residual = 7.55639e-05, No Iterations 3
smoothSolver:  Solving for k, Initial residual = 0.0255635, Final residual = 0.0020907, No Iterations 3
ExecutionTime = 0.54 s  ClockTime = 0 s

scalarTransport execute: age
smoothSolver:  Solving for age, Initial residual = 0.0369846, Final residual = 0.00360795, No Iterations 10

Time = 45

smoothSolver:  Solving for Ux, Initial residual = 0.0167032, Final residual = 0.000980987, No Iterations 4
smoothSolver:  Solving for Uy, Initial residual = 0.0163982, Final residual = 0.00115913, No Iterations 4
GAMG:  Solving for p, Initial residual = 0.040093, Final residual = 0.00343626, No Iterations 2
time step continuity errors : sum local = 0.0157782, global = 0.000659747, cumulative = 0.0551142
smoothSolver:  Solving for omega, Initial residual = 0.00158177, Final residual = 7.42272e-05, No Iterations 3
smoothSolver:  Solving for k, Initial residual = 0.0247277, Final residual = 0.00201753, No Iterations 3
ExecutionTime = 0.55 s  ClockTime = 0 s

scalarTransport execute: age
smoothSolver:  Solving for age, Initial residual = 0.0366062, Final residual = 0.00348023, No Iterations 10

Time = 46

smoothSolver:  Solving for Ux, Initial residual = 0.0160914, Final residual = 0.000919367, No Iterations 4
smoothSolver:  Solving for Uy, Initial residual = 0.0164106, Final residual = 0.00117975, No Iterations 4
GAMG:  Solving for p, Initial residual = 0.0397476, Final residual = 0.00340238, No Iterations 2
time step continuity errors : sum local = 0.015634, global = 0.000589411, cumulative = 0.0557036
smoothSolver:  Solving for omega, Initial residual = 0.00159683, Final residual = 7.37352e-05, No Iterations 3
smoothSolver:  Solving for k, Initial residual = 0.0238377, Final residual = 0.00191871, No Iterations 3
ExecutionTime = 0.56 s  ClockTime = 0 s

scalarTransport execute: age
smoothSolver:  Solving for age, Initial residual = 0.0362034, Final residual = 0.00334431, No Iterations 10

Time = 47

smoothSolver:  Solving for Ux, Initial residual = 0.0153716, Final residual = 0.000857792, No Iterations 4
smoothSolver:  Solving for Uy, Initial residual = 0.0162727, Final residual = 0.00117496, No Iterations 4
GAMG:  Solving for p, Initial residual = 0.0391174, Final residual = 0.00323937, No Iterations 2
time step continuity errors : sum local = 0.0148642, global = 0.000503351, cumulative = 0.0562069
smoothSolver:  Solving for omega, Initial residual = 0.00158693, Final residual = 7.28982e-05, No Iterations 3
smoothSolver:  Solving for k, Initial residual = 0.0229329, Final residual = 0.00180385, No Iterations 3
ExecutionTime = 0.57 s  ClockTime = 0 s

scalarTransport execute: age
smoothSolver:  Solving for age, Initial residual = 0.0353112, Final residual = 0.00322218, No Iterations 10

Time = 48

smoothSolver:  Solving for Ux, Initial residual = 0.0147291, Final residual = 0.00146989, No Iterations 3
smoothSolver:  Solving for Uy, Initial residual = 0.0158908, Final residual = 0.0011468, No Iterations 4
GAMG:  Solving for p, Initial residual = 0.0377105, Final residual = 0.00285093, No Iterations 2
time step continuity errors : sum local = 0.013024, global = 0.000398284, cumulative = 0.0566052
smoothSolver:  Solving for omega, Initial residual = 0.00154331, Final residual = 7.05611e-05, No Iterations 3
smoothSolver:  Solving for k, Initial residual = 0.0222035, Final residual = 0.00169847, No Iterations 3
ExecutionTime = 0.58 s  ClockTime = 0 s

scalarTransport execute: age
smoothSolver:  Solving for age, Initial residual = 0.0336912, Final residual = 0.0031057, No Iterations 10

Time = 49

smoothSolver:  Solving for Ux, Initial residual = 0.0143453, Final residual = 0.000791636, No Iterations 4
smoothSolver:  Solving for Uy, Initial residual = 0.015328, Final residual = 0.00109938, No Iterations 4
GAMG:  Solving for p, Initial residual = 0.0377354, Final residual = 0.00279678, No Iterations 2
time step continuity errors : sum local = 0.0126876, global = 0.000287806, cumulative = 0.056893
smoothSolver:  Solving for omega, Initial residual = 0.00149026, Final residual = 6.87623e-05, No Iterations 3
smoothSolver:  Solving for k, Initial residual = 0.0216972, Final residual = 0.0016108, No Iterations 3
ExecutionTime = 0.59 s  ClockTime = 0 s

scalarTransport execute: age
smoothSolver:  Solving for age, Initial residual = 0.0322764, Final residual = 0.00301221, No Iterations 10

Time = 50

smoothSolver:  Solving for Ux, Initial residual = 0.0138059, Final residual = 0.00137527, No Iterations 3
smoothSolver:  Solving for Uy, Initial residual = 0.0147608, Final residual = 0.00105205, No Iterations 4
GAMG:  Solving for p, Initial residual = 0.0366976, Final residual = 0.0024057, No Iterations 2
time step continuity errors : sum local = 0.0108154, global = 0.000169683, cumulative = 0.0570627
smoothSolver:  Solving for omega, Initial residual = 0.0014451, Final residual = 6.73133e-05, No Iterations 3
smoothSolver:  Solving for k, Initial residual = 0.0209017, Final residual = 0.00152448, No Iterations 3
ExecutionTime = 0.6 s  ClockTime = 0 s

scalarTransport execute: age
smoothSolver:  Solving for age, Initial residual = 0.0301543, Final residual = 0.00290753, No Iterations 10

Time = 51

smoothSolver:  Solving for Ux, Initial residual = 0.0135822, Final residual = 0.000733668, No Iterations 4
smoothSolver:  Solving for Uy, Initial residual = 0.0142228, Final residual = 0.00100584, No Iterations 4
GAMG:  Solving for p, Initial residual = 0.0368125, Final residual = 0.0023832, No Iterations 2
time step continuity errors : sum local = 0.0106115, global = 0.00010273, cumulative = 0.0571654
smoothSolver:  Solving for omega, Initial residual = 0.00143514, Final residual = 6.88431e-05, No Iterations 3
smoothSolver:  Solving for k, Initial residual = 0.0203767, Final residual = 0.00147556, No Iterations 3
ExecutionTime = 0.62 s  ClockTime = 0 s

scalarTransport execute: age
smoothSolver:  Solving for age, Initial residual = 0.0284524, Final residual = 0.00282411, No Iterations 10

Time = 52

smoothSolver:  Solving for Ux, Initial residual = 0.0131398, Final residual = 0.00129336, No Iterations 3
smoothSolver:  Solving for Uy, Initial residual = 0.0138885, Final residual = 0.000983128, No Iterations 4
GAMG:  Solving for p, Initial residual = 0.0357538, Final residual = 0.00209243, No Iterations 2
time step continuity errors : sum local = 0.00924005, global = 4.11099e-05, cumulative = 0.0572065
smoothSolver:  Solving for omega, Initial residual = 0.00141957, Final residual = 6.94471e-05, No Iterations 3
smoothSolver:  Solving for k, Initial residual = 0.0195882, Final residual = 0.00143285, No Iterations 3
ExecutionTime = 0.63 s  ClockTime = 0 s

scalarTransport execute: age
smoothSolver:  Solving for age, Initial residual = 0.0266067, Final residual = 0.00236184, No Iterations 11

Time = 53

smoothSolver:  Solving for Ux, Initial residual = 0.0129416, Final residual = 0.00126744, No Iterations 3
smoothSolver:  Solving for Uy, Initial residual = 0.013459, Final residual = 0.000949688, No Iterations 4
GAMG:  Solving for p, Initial residual = 0.0348021, Final residual = 0.00195665, No Iterations 2
time step continuity errors : sum local = 0.0085749, global = -5.54303e-05, cumulative = 0.0571511
smoothSolver:  Solving for omega, Initial residual = 0.00141495, Final residual = 7.03065e-05, No Iterations 3
smoothSolver:  Solving for k, Initial residual = 0.0188746, Final residual = 0.00140282, No Iterations 3
ExecutionTime = 0.64 s  ClockTime = 0 s

scalarTransport execute: age
smoothSolver:  Solving for age, Initial residual = 0.0251465, Final residual = 0.00226499, No Iterations 11

Time = 54

smoothSolver:  Solving for Ux, Initial residual = 0.0127628, Final residual = 0.00123289, No Iterations 3
smoothSolver:  Solving for Uy, Initial residual = 0.0130567, Final residual = 0.000929872, No Iterations 4
GAMG:  Solving for p, Initial residual = 0.0337885, Final residual = 0.00188388, No Iterations 2
time step continuity errors : sum local = 0.00819181, global = -0.000162195, cumulative = 0.0569889
smoothSolver:  Solving for omega, Initial residual = 0.00140542, Final residual = 7.04876e-05, No Iterations 3
smoothSolver:  Solving for k, Initial residual = 0.0183177, Final residual = 0.00138239, No Iterations 3
ExecutionTime = 0.65 s  ClockTime = 0 s

scalarTransport execute: age
smoothSolver:  Solving for age, Initial residual = 0.0239984, Final residual = 0.00216975, No Iterations 11

Time = 55

smoothSolver:  Solving for Ux, Initial residual = 0.0125028, Final residual = 0.00120317, No Iterations 3
smoothSolver:  Solving for Uy, Initial residual = 0.0127652, Final residual = 0.000911516, No Iterations 4
GAMG:  Solving for p, Initial residual = 0.0325396, Final residual = 0.00180786, No Iterations 2
time step continuity errors : sum local = 0.00781522, global = -0.000249656, cumulative = 0.0567393
smoothSolver:  Solving for omega, Initial residual = 0.00139206, Final residual = 6.94424e-05, No Iterations 3
smoothSolver:  Solving for k, Initial residual = 0.0178809, Final residual = 0.00137025, No Iterations 3
ExecutionTime = 0.66 s  ClockTime = 0 s

scalarTransport execute: age
smoothSolver:  Solving for age, Initial residual = 0.0229884, Final residual = 0.00206785, No Iterations 11

Time = 56

smoothSolver:  Solving for Ux, Initial residual = 0.0122211, Final residual = 0.00118362, No Iterations 3
smoothSolver:  Solving for Uy, Initial residual = 0.0124704, Final residual = 0.000887983, No Iterations 4
GAMG:  Solving for p, Initial residual = 0.0315574, Final residual = 0.00171978, No Iterations 2
time step continuity errors : sum local = 0.00742063, global = -0.000347239, cumulative = 0.056392
smoothSolver:  Solving for omega, Initial residual = 0.00134986, Final residual = 6.72435e-05, No Iterations 3
smoothSolver:  Solving for k, Initial residual = 0.0174956, Final residual = 0.00136136, No Iterations 3
ExecutionTime = 0.67 s  ClockTime = 0 s

scalarTransport execute: age
smoothSolver:  Solving for age, Initial residual = 0.022003, Final residual = 0.00197908, No Iterations 11

Time = 57

smoothSolver:  Solving for Ux, Initial residual = 0.0118957, Final residual = 0.00117279, No Iterations 3
smoothSolver:  Solving for Uy, Initial residual = 0.0121163, Final residual = 0.000860695, No Iterations 4
GAMG:  Solving for p, Initial residual = 0.0308517, Final residual = 0.00163121, No Iterations 2
time step continuity errors : sum local = 0.00703847, global = -0.000460154, cumulative = 0.0559319
smoothSolver:  Solving for omega, Initial residual = 0.00130841, Final residual = 6.42602e-05, No Iterations 3
smoothSolver:  Solving for k, Initial residual = 0.0171147, Final residual = 0.00134889, No Iterations 3
ExecutionTime = 0.68 s  ClockTime = 0 s

scalarTransport execute: age
smoothSolver:  Solving for age, Initial residual = 0.0212002, Final residual = 0.00189474, No Iterations 11

Time = 58

smoothSolver:  Solving for Ux, Initial residual = 0.0116526, Final residual = 0.0011556, No Iterations 3
smoothSolver:  Solving for Uy, Initial residual = 0.0117885, Final residual = 0.000831866, No Iterations 4
GAMG:  Solving for p, Initial residual = 0.0304083, Final residual = 0.00153693, No Iterations 2
time step continuity errors : sum local = 0.00663834, global = -0.000531843, cumulative = 0.0554
smoothSolver:  Solving for omega, Initial residual = 0.00126624, Final residual = 6.1481e-05, No Iterations 3
smoothSolver:  Solving for k, Initial residual = 0.0167293, Final residual = 0.00132459, No Iterations 3
ExecutionTime = 0.69 s  ClockTime = 0 s

scalarTransport execute: age
smoothSolver:  Solving for age, Initial residual = 0.0207398, Final residual = 0.00179911, No Iterations 11

Time = 59

smoothSolver:  Solving for Ux, Initial residual = 0.011349, Final residual = 0.00112728, No Iterations 3
smoothSolver:  Solving for Uy, Initial residual = 0.0114608, Final residual = 0.000798907, No Iterations 4
GAMG:  Solving for p, Initial residual = 0.0296123, Final residual = 0.0014967, No Iterations 2
time step continuity errors : sum local = 0.00648694, global = -0.00055696, cumulative = 0.0548431
smoothSolver:  Solving for omega, Initial residual = 0.00122695, Final residual = 5.95967e-05, No Iterations 3
smoothSolver:  Solving for k, Initial residual = 0.0164024, Final residual = 0.00129283, No Iterations 3
ExecutionTime = 0.7 s  ClockTime = 0 s

scalarTransport execute: age
smoothSolver:  Solving for age, Initial residual = 0.0200753, Final residual = 0.001988, No Iterations 10

Time = 60

smoothSolver:  Solving for Ux, Initial residual = 0.0110442, Final residual = 0.00108033, No Iterations 3
smoothSolver:  Solving for Uy, Initial residual = 0.0111593, Final residual = 0.000773203, No Iterations 4
GAMG:  Solving for p, Initial residual = 0.0285236, Final residual = 0.00148859, No Iterations 2
time step continuity errors : sum local = 0.00648327, global = -0.00054829, cumulative = 0.0542948
smoothSolver:  Solving for omega, Initial residual = 0.00121024, Final residual = 5.8409e-05, No Iterations 3
smoothSolver:  Solving for k, Initial residual = 0.0160849, Final residual = 0.00126479, No Iterations 3
ExecutionTime = 0.71 s  ClockTime = 1 s

scalarTransport execute: age
smoothSolver:  Solving for age, Initial residual = 0.0198033, Final residual = 0.00191572, No Iterations 10

Time = 61

smoothSolver:  Solving for Ux, Initial residual = 0.0106457, Final residual = 0.0010167, No Iterations 3
smoothSolver:  Solving for Uy, Initial residual = 0.0109053, Final residual = 0.000750351, No Iterations 4
GAMG:  Solving for p, Initial residual = 0.0274025, Final residual = 0.00148876, No Iterations 2
time step continuity errors : sum local = 0.00651774, global = -0.000518106, cumulative = 0.0537767
smoothSolver:  Solving for omega, Initial residual = 0.00116437, Final residual = 5.6711e-05, No Iterations 3
smoothSolver:  Solving for k, Initial residual = 0.0157869, Final residual = 0.00124289, No Iterations 3
ExecutionTime = 0.72 s  ClockTime = 1 s

scalarTransport execute: age
smoothSolver:  Solving for age, Initial residual = 0.0194175, Final residual = 0.00185515, No Iterations 10

Time = 62

smoothSolver:  Solving for Ux, Initial residual = 0.0101999, Final residual = 0.000942122, No Iterations 3
smoothSolver:  Solving for Uy, Initial residual = 0.0105528, Final residual = 0.000720097, No Iterations 4
GAMG:  Solving for p, Initial residual = 0.0260791, Final residual = 0.00148567, No Iterations 2
time step continuity errors : sum local = 0.00653454, global = -0.000478893, cumulative = 0.0532978
smoothSolver:  Solving for omega, Initial residual = 0.00112, Final residual = 5.40687e-05, No Iterations 3
smoothSolver:  Solving for k, Initial residual = 0.0153815, Final residual = 0.00122453, No Iterations 3
ExecutionTime = 0.74 s  ClockTime = 1 s

scalarTransport execute: age
smoothSolver:  Solving for age, Initial residual = 0.0187693, Final residual = 0.00178522, No Iterations 10

Time = 63

smoothSolver:  Solving for Ux, Initial residual = 0.00971498, Final residual = 0.000867886, No Iterations 3
smoothSolver:  Solving for Uy, Initial residual = 0.0100309, Final residual = 0.000680024, No Iterations 4
GAMG:  Solving for p, Initial residual = 0.0245867, Final residual = 0.00148289, No Iterations 2
time step continuity errors : sum local = 0.00654426, global = -0.000445196, cumulative = 0.0528526
smoothSolver:  Solving for omega, Initial residual = 0.00105595, Final residual = 5.07297e-05, No Iterations 3
smoothSolver:  Solving for k, Initial residual = 0.0150048, Final residual = 0.00120809, No Iterations 3
ExecutionTime = 0.75 s  ClockTime = 1 s

scalarTransport execute: age
smoothSolver:  Solving for age, Initial residual = 0.018008, Final residual = 0.00171826, No Iterations 10

Time = 64

smoothSolver:  Solving for Ux, Initial residual = 0.00917872, Final residual = 0.000801828, No Iterations 3
smoothSolver:  Solving for Uy, Initial residual = 0.00945487, Final residual = 0.000635331, No Iterations 4
GAMG:  Solving for p, Initial residual = 0.0232655, Final residual = 0.00146255, No Iterations 2
time step continuity errors : sum local = 0.00646608, global = -0.000423307, cumulative = 0.0524293
smoothSolver:  Solving for omega, Initial residual = 0.00100746, Final residual = 4.74339e-05, No Iterations 3
smoothSolver:  Solving for k, Initial residual = 0.0146473, Final residual = 0.00117927, No Iterations 3
ExecutionTime = 0.76 s  ClockTime = 1 s

scalarTransport execute: age
smoothSolver:  Solving for age, Initial residual = 0.0172167, Final residual = 0.00166185, No Iterations 10

Time = 65

smoothSolver:  Solving for Ux, Initial residual = 0.00872309, Final residual = 0.000756619, No Iterations 3
smoothSolver:  Solving for Uy, Initial residual = 0.00889026, Final residual = 0.000593767, No Iterations 4
GAMG:  Solving for p, Initial residual = 0.022199, Final residual = 0.00141677, No Iterations 2
time step continuity errors : sum local = 0.00626545, global = -0.00040899, cumulative = 0.0520203
smoothSolver:  Solving for omega, Initial residual = 0.000973, Final residual = 4.55415e-05, No Iterations 3
smoothSolver:  Solving for k, Initial residual = 0.0141752, Final residual = 0.00113657, No Iterations 3
ExecutionTime = 0.77 s  ClockTime = 1 s

scalarTransport execute: age
smoothSolver:  Solving for age, Initial residual = 0.0168211, Final residual = 0.00165021, No Iterations 10

Time = 66

smoothSolver:  Solving for Ux, Initial residual = 0.00833822, Final residual = 0.000735925, No Iterations 3
smoothSolver:  Solving for Uy, Initial residual = 0.00847255, Final residual = 0.000556336, No Iterations 4
GAMG:  Solving for p, Initial residual = 0.0214949, Final residual = 0.00139183, No Iterations 2
time step continuity errors : sum local = 0.00614842, global = -0.000395687, cumulative = 0.0516246
smoothSolver:  Solving for omega, Initial residual = 0.000942898, Final residual = 4.46595e-05, No Iterations 3
smoothSolver:  Solving for k, Initial residual = 0.0137287, Final residual = 0.0010824, No Iterations 3
ExecutionTime = 0.78 s  ClockTime = 1 s

scalarTransport execute: age
smoothSolver:  Solving for age, Initial residual = 0.0166135, Final residual = 0.00165706, No Iterations 10

Time = 67

smoothSolver:  Solving for Ux, Initial residual = 0.00803146, Final residual = 0.000728367, No Iterations 3
smoothSolver:  Solving for Uy, Initial residual = 0.00810265, Final residual = 0.000522279, No Iterations 4
GAMG:  Solving for p, Initial residual = 0.0210146, Final residual = 0.00140382, No Iterations 2
time step continuity errors : sum local = 0.00618941, global = -0.000379969, cumulative = 0.0512446
smoothSolver:  Solving for omega, Initial residual = 0.00092342, Final residual = 4.36192e-05, No Iterations 3
smoothSolver:  Solving for k, Initial residual = 0.0133541, Final residual = 0.00103821, No Iterations 3
ExecutionTime = 0.79 s  ClockTime = 1 s

scalarTransport execute: age
smoothSolver:  Solving for age, Initial residual = 0.0164057, Final residual = 0.00142748, No Iterations 11

Time = 68

smoothSolver:  Solving for Ux, Initial residual = 0.00773949, Final residual = 0.000723978, No Iterations 3
smoothSolver:  Solving for Uy, Initial residual = 0.00770733, Final residual = 0.000490831, No Iterations 4
GAMG:  Solving for p, Initial residual = 0.0206744, Final residual = 0.00139639, No Iterations 2
time step continuity errors : sum local = 0.00613724, global = -0.000362647, cumulative = 0.050882
smoothSolver:  Solving for omega, Initial residual = 0.000895197, Final residual = 4.1846e-05, No Iterations 3
smoothSolver:  Solving for k, Initial residual = 0.0131074, Final residual = 0.00101823, No Iterations 3
ExecutionTime = 0.8 s  ClockTime = 1 s

scalarTransport execute: age
smoothSolver:  Solving for age, Initial residual = 0.0161177, Final residual = 0.00140335, No Iterations 11

Time = 69

smoothSolver:  Solving for Ux, Initial residual = 0.0074903, Final residual = 0.000722112, No Iterations 3
smoothSolver:  Solving for Uy, Initial residual = 0.00736753, Final residual = 0.000461318, No Iterations 4
GAMG:  Solving for p, Initial residual = 0.0203998, Final residual = 0.00139434, No Iterations 2
time step continuity errors : sum local = 0.00610231, global = -0.000347696, cumulative = 0.0505343
smoothSolver:  Solving for omega, Initial residual = 0.000863353, Final residual = 3.94857e-05, No Iterations 3
smoothSolver:  Solving for k, Initial residual = 0.0128938, Final residual = 0.000998036, No Iterations 3
ExecutionTime = 0.81 s  ClockTime = 1 s

scalarTransport execute: age
smoothSolver:  Solving for age, Initial residual = 0.0155655, Final residual = 0.0013782, No Iterations 11

Time = 70

smoothSolver:  Solving for Ux, Initial residual = 0.00725749, Final residual = 0.000717005, No Iterations 3
smoothSolver:  Solving for Uy, Initial residual = 0.00705254, Final residual = 0.000433839, No Iterations 4
GAMG:  Solving for p, Initial residual = 0.0200687, Final residual = 0.00143336, No Iterations 2
time step continuity errors : sum local = 0.00624206, global = -0.000341022, cumulative = 0.0501933
smoothSolver:  Solving for omega, Initial residual = 0.000832491, Final residual = 3.70986e-05, No Iterations 3
smoothSolver:  Solving for k, Initial residual = 0.0126238, Final residual = 0.000969789, No Iterations 3
ExecutionTime = 0.82 s  ClockTime = 1 s

scalarTransport execute: age
smoothSolver:  Solving for age, Initial residual = 0.0150295, Final residual = 0.00134756, No Iterations 11

Time = 71

smoothSolver:  Solving for Ux, Initial residual = 0.00703383, Final residual = 0.000399262, No Iterations 4
smoothSolver:  Solving for Uy, Initial residual = 0.00682291, Final residual = 0.000413113, No Iterations 4
GAMG:  Solving for p, Initial residual = 0.0201971, Final residual = 0.00158883, No Iterations 2
time step continuity errors : sum local = 0.0068813, global = -0.00034922, cumulative = 0.049844
smoothSolver:  Solving for omega, Initial residual = 0.000809437, Final residual = 3.54958e-05, No Iterations 3
smoothSolver:  Solving for k, Initial residual = 0.0122801, Final residual = 0.000932276, No Iterations 3
ExecutionTime = 0.84 s  ClockTime = 1 s

scalarTransport execute: age
smoothSolver:  Solving for age, Initial residual = 0.0148696, Final residual = 0.0013346, No Iterations 11

Time = 72

smoothSolver:  Solving for Ux, Initial residual = 0.00673174, Final residual = 0.000672491, No Iterations 3
smoothSolver:  Solving for Uy, Initial residual = 0.00670313, Final residual = 0.000405558, No Iterations 4
GAMG:  Solving for p, Initial residual = 0.0193179, Final residual = 0.00141591, No Iterations 2
time step continuity errors : sum local = 0.00610075, global = -0.000366156, cumulative = 0.0494779
smoothSolver:  Solving for omega, Initial residual = 0.000794361, Final residual = 3.50033e-05, No Iterations 3
smoothSolver:  Solving for k, Initial residual = 0.0117644, Final residual = 0.000891387, No Iterations 3
ExecutionTime = 0.85 s  ClockTime = 1 s

scalarTransport execute: age
smoothSolver:  Solving for age, Initial residual = 0.0146896, Final residual = 0.00132031, No Iterations 11

Time = 73

smoothSolver:  Solving for Ux, Initial residual = 0.00647301, Final residual = 0.000369862, No Iterations 4
smoothSolver:  Solving for Uy, Initial residual = 0.00658313, Final residual = 0.000400894, No Iterations 4
GAMG:  Solving for p, Initial residual = 0.019227, Final residual = 0.00139497, No Iterations 2
time step continuity errors : sum local = 0.00598625, global = -0.000383102, cumulative = 0.0490948
smoothSolver:  Solving for omega, Initial residual = 0.000776399, Final residual = 3.48e-05, No Iterations 3
smoothSolver:  Solving for k, Initial residual = 0.0112641, Final residual = 0.000851471, No Iterations 3
ExecutionTime = 0.86 s  ClockTime = 1 s

scalarTransport execute: age
smoothSolver:  Solving for age, Initial residual = 0.0147356, Final residual = 0.00130142, No Iterations 11

Time = 74

smoothSolver:  Solving for Ux, Initial residual = 0.00613285, Final residual = 0.000610038, No Iterations 3
smoothSolver:  Solving for Uy, Initial residual = 0.00640418, Final residual = 0.000400852, No Iterations 4
GAMG:  Solving for p, Initial residual = 0.0181176, Final residual = 0.00108155, No Iterations 2
time step continuity errors : sum local = 0.00462752, global = -0.000375747, cumulative = 0.048719
smoothSolver:  Solving for omega, Initial residual = 0.000745276, Final residual = 3.41392e-05, No Iterations 3
smoothSolver:  Solving for k, Initial residual = 0.0107228, Final residual = 0.000817305, No Iterations 3
ExecutionTime = 0.87 s  ClockTime = 1 s

scalarTransport execute: age
smoothSolver:  Solving for age, Initial residual = 0.0145721, Final residual = 0.00127343, No Iterations 11

Time = 75

smoothSolver:  Solving for Ux, Initial residual = 0.005857, Final residual = 0.000581514, No Iterations 3
smoothSolver:  Solving for Uy, Initial residual = 0.00616601, Final residual = 0.000394165, No Iterations 4
GAMG:  Solving for p, Initial residual = 0.0171519, Final residual = 0.000957336, No Iterations 2
time step continuity errors : sum local = 0.00408654, global = -0.000347801, cumulative = 0.0483712
smoothSolver:  Solving for omega, Initial residual = 0.000694487, Final residual = 3.23126e-05, No Iterations 3
smoothSolver:  Solving for k, Initial residual = 0.0102161, Final residual = 0.000782858, No Iterations 3
ExecutionTime = 0.88 s  ClockTime = 1 s

scalarTransport execute: age
smoothSolver:  Solving for age, Initial residual = 0.0142357, Final residual = 0.00125597, No Iterations 11

Time = 76

smoothSolver:  Solving for Ux, Initial residual = 0.00564126, Final residual = 0.000556356, No Iterations 3
smoothSolver:  Solving for Uy, Initial residual = 0.00600654, Final residual = 0.000380286, No Iterations 4
GAMG:  Solving for p, Initial residual = 0.0163933, Final residual = 0.000892161, No Iterations 2
time step continuity errors : sum local = 0.00379988, global = -0.000317476, cumulative = 0.0480538
smoothSolver:  Solving for omega, Initial residual = 0.000658076, Final residual = 3.00553e-05, No Iterations 3
smoothSolver:  Solving for k, Initial residual = 0.00978118, Final residual = 0.000743278, No Iterations 3
ExecutionTime = 0.89 s  ClockTime = 1 s

scalarTransport execute: age
smoothSolver:  Solving for age, Initial residual = 0.0138544, Final residual = 0.00124774, No Iterations 11

Time = 77

smoothSolver:  Solving for Ux, Initial residual = 0.00545436, Final residual = 0.000532879, No Iterations 3
smoothSolver:  Solving for Uy, Initial residual = 0.00581314, Final residual = 0.00035991, No Iterations 4
GAMG:  Solving for p, Initial residual = 0.0158109, Final residual = 0.000849753, No Iterations 2
time step continuity errors : sum local = 0.00360965, global = -0.000291733, cumulative = 0.047762
smoothSolver:  Solving for omega, Initial residual = 0.000624212, Final residual = 2.73922e-05, No Iterations 3
smoothSolver:  Solving for k, Initial residual = 0.00931772, Final residual = 0.000697512, No Iterations 3
ExecutionTime = 0.9 s  ClockTime = 1 s

scalarTransport execute: age
smoothSolver:  Solving for age, Initial residual = 0.0134564, Final residual = 0.00121902, No Iterations 11

Time = 78

smoothSolver:  Solving for Ux, Initial residual = 0.00530056, Final residual = 0.000517053, No Iterations 3
smoothSolver:  Solving for Uy, Initial residual = 0.00565207, Final residual = 0.00033883, No Iterations 4
GAMG:  Solving for p, Initial residual = 0.0153021, Final residual = 0.00081477, No Iterations 2
time step continuity errors : sum local = 0.0034509, global = -0.000267165, cumulative = 0.0474949
smoothSolver:  Solving for omega, Initial residual = 0.000594835, Final residual = 2.54913e-05, No Iterations 3
smoothSolver:  Solving for k, Initial residual = 0.00883323, Final residual = 0.000645857, No Iterations 3
ExecutionTime = 0.91 s  ClockTime = 1 s

scalarTransport execute: age
smoothSolver:  Solving for age, Initial residual = 0.0131659, Final residual = 0.00116756, No Iterations 11

Time = 79

smoothSolver:  Solving for Ux, Initial residual = 0.00522623, Final residual = 0.000503814, No Iterations 3
smoothSolver:  Solving for Uy, Initial residual = 0.00548222, Final residual = 0.000319237, No Iterations 4
GAMG:  Solving for p, Initial residual = 0.0147977, Final residual = 0.000812832, No Iterations 2
time step continuity errors : sum local = 0.00343275, global = -0.000240929, cumulative = 0.0472539
smoothSolver:  Solving for omega, Initial residual = 0.000571363, Final residual = 2.46106e-05, No Iterations 3
smoothSolver:  Solving for k, Initial residual = 0.00837137, Final residual = 0.000591709, No Iterations 3
ExecutionTime = 0.92 s  ClockTime = 1 s

scalarTransport execute: age
smoothSolver:  Solving for age, Initial residual = 0.0129167, Final residual = 0.00112372, No Iterations 11

Time = 80

smoothSolver:  Solving for Ux, Initial residual = 0.00510982, Final residual = 0.000487086, No Iterations 3
smoothSolver:  Solving for Uy, Initial residual = 0.0053378, Final residual = 0.000307472, No Iterations 4
GAMG:  Solving for p, Initial residual = 0.0142347, Final residual = 0.000836393, No Iterations 2
time step continuity errors : sum local = 0.00352477, global = -0.00021198, cumulative = 0.047042
smoothSolver:  Solving for omega, Initial residual = 0.000547924, Final residual = 2.41886e-05, No Iterations 3
smoothSolver:  Solving for k, Initial residual = 0.00793199, Final residual = 0.000544711, No Iterations 3
ExecutionTime = 0.93 s  ClockTime = 1 s

scalarTransport execute: age
smoothSolver:  Solving for age, Initial residual = 0.0127286, Final residual = 0.00127115, No Iterations 10

Time = 81

smoothSolver:  Solving for Ux, Initial residual = 0.00498694, Final residual = 0.000463538, No Iterations 3
smoothSolver:  Solving for Uy, Initial residual = 0.00521323, Final residual = 0.00030619, No Iterations 4
GAMG:  Solving for p, Initial residual = 0.0135679, Final residual = 0.000858143, No Iterations 2
time step continuity errors : sum local = 0.00361168, global = -0.000180251, cumulative = 0.0468617
smoothSolver:  Solving for omega, Initial residual = 0.000516406, Final residual = 2.38347e-05, No Iterations 3
smoothSolver:  Solving for k, Initial residual = 0.00755665, Final residual = 0.000504694, No Iterations 3
ExecutionTime = 0.95 s  ClockTime = 1 s

scalarTransport execute: age
smoothSolver:  Solving for age, Initial residual = 0.0123983, Final residual = 0.00107156, No Iterations 11

Time = 82

smoothSolver:  Solving for Ux, Initial residual = 0.00482842, Final residual = 0.000437483, No Iterations 3
smoothSolver:  Solving for Uy, Initial residual = 0.00509933, Final residual = 0.000307802, No Iterations 4
GAMG:  Solving for p, Initial residual = 0.0128178, Final residual = 0.000874735, No Iterations 2
time step continuity errors : sum local = 0.00367949, global = -0.000155961, cumulative = 0.0467057
smoothSolver:  Solving for omega, Initial residual = 0.000485602, Final residual = 2.30874e-05, No Iterations 3
smoothSolver:  Solving for k, Initial residual = 0.00725184, Final residual = 0.000481296, No Iterations 3
ExecutionTime = 0.96 s  ClockTime = 1 s

scalarTransport execute: age
smoothSolver:  Solving for age, Initial residual = 0.0119039, Final residual = 0.00102911, No Iterations 11

Time = 83

smoothSolver:  Solving for Ux, Initial residual = 0.00462709, Final residual = 0.000421926, No Iterations 3
smoothSolver:  Solving for Uy, Initial residual = 0.00491542, Final residual = 0.000305285, No Iterations 4
GAMG:  Solving for p, Initial residual = 0.0121375, Final residual = 0.0008565, No Iterations 2
time step continuity errors : sum local = 0.0036014, global = -0.000131057, cumulative = 0.0465747
smoothSolver:  Solving for omega, Initial residual = 0.000461163, Final residual = 2.19212e-05, No Iterations 3
smoothSolver:  Solving for k, Initial residual = 0.00701437, Final residual = 0.000469998, No Iterations 3
ExecutionTime = 0.97 s  ClockTime = 1 s

scalarTransport execute: age
smoothSolver:  Solving for age, Initial residual = 0.0112767, Final residual = 0.000987712, No Iterations 11

Time = 84

smoothSolver:  Solving for Ux, Initial residual = 0.0045133, Final residual = 0.000419437, No Iterations 3
smoothSolver:  Solving for Uy, Initial residual = 0.00471152, Final residual = 0.000297608, No Iterations 4
GAMG:  Solving for p, Initial residual = 0.0115992, Final residual = 0.000830342, No Iterations 2
time step continuity errors : sum local = 0.00349155, global = -0.000108082, cumulative = 0.0464666
smoothSolver:  Solving for omega, Initial residual = 0.000443784, Final residual = 2.08808e-05, No Iterations 3
smoothSolver:  Solving for k, Initial residual = 0.00679221, Final residual = 0.000461603, No Iterations 3
ExecutionTime = 0.98 s  ClockTime = 1 s

scalarTransport execute: age
smoothSolver:  Solving for age, Initial residual = 0.0108117, Final residual = 0.000951989, No Iterations 11

Time = 85

smoothSolver:  Solving for Ux, Initial residual = 0.00442759, Final residual = 0.00042217, No Iterations 3
smoothSolver:  Solving for Uy, Initial residual = 0.00448381, Final residual = 0.000290112, No Iterations 4
GAMG:  Solving for p, Initial residual = 0.0111008, Final residual = 0.000818212, No Iterations 2
time step continuity errors : sum local = 0.00344146, global = -8.4673e-05, cumulative = 0.0463819
smoothSolver:  Solving for omega, Initial residual = 0.000439649, Final residual = 2.06854e-05, No Iterations 3
smoothSolver:  Solving for k, Initial residual = 0.00659857, Final residual = 0.000452619, No Iterations 3
ExecutionTime = 0.99 s  ClockTime = 1 s

scalarTransport execute: age
smoothSolver:  Solving for age, Initial residual = 0.0103986, Final residual = 0.00091789, No Iterations 11

Time = 86

smoothSolver:  Solving for Ux, Initial residual = 0.0042986, Final residual = 0.000421966, No Iterations 3
smoothSolver:  Solving for Uy, Initial residual = 0.00434126, Final residual = 0.000282503, No Iterations 4
GAMG:  Solving for p, Initial residual = 0.0107108, Final residual = 0.000832731, No Iterations 2
time step continuity errors : sum local = 0.00350405, global = -5.88983e-05, cumulative = 0.046323
smoothSolver:  Solving for omega, Initial residual = 0.000442966, Final residual = 2.09091e-05, No Iterations 3
smoothSolver:  Solving for k, Initial residual = 0.00645437, Final residual = 0.00044306, No Iterations 3
ExecutionTime = 1 s  ClockTime = 1 s

scalarTransport execute: age
smoothSolver:  Solving for age, Initial residual = 0.0100726, Final residual = 0.000893738, No Iterations 11

Time = 87

smoothSolver:  Solving for Ux, Initial residual = 0.0041256, Final residual = 0.000411992, No Iterations 3
smoothSolver:  Solving for Uy, Initial residual = 0.00424443, Final residual = 0.000276519, No Iterations 4
GAMG:  Solving for p, Initial residual = 0.0104016, Final residual = 0.000849042, No Iterations 2
time step continuity errors : sum local = 0.00357335, global = -2.93437e-05, cumulative = 0.0462937
smoothSolver:  Solving for omega, Initial residual = 0.000442603, Final residual = 2.07194e-05, No Iterations 3
smoothSolver:  Solving for k, Initial residual = 0.00627441, Final residual = 0.000429625, No Iterations 3
ExecutionTime = 1.02 s  ClockTime = 1 s

scalarTransport execute: age
smoothSolver:  Solving for age, Initial residual = 0.00982479, Final residual = 0.000874125, No Iterations 11

Time = 88

smoothSolver:  Solving for Ux, Initial residual = 0.00398054, Final residual = 0.000391859, No Iterations 3
smoothSolver:  Solving for Uy, Initial residual = 0.00412826, Final residual = 0.000271645, No Iterations 4
GAMG:  Solving for p, Initial residual = 0.0101057, Final residual = 0.000841897, No Iterations 2
time step continuity errors : sum local = 0.00354134, global = 4.42104e-06, cumulative = 0.0462981
smoothSolver:  Solving for omega, Initial residual = 0.000430494, Final residual = 2.025e-05, No Iterations 3
smoothSolver:  Solving for k, Initial residual = 0.00603166, Final residual = 0.000409943, No Iterations 3
ExecutionTime = 1.03 s  ClockTime = 1 s

scalarTransport execute: age
smoothSolver:  Solving for age, Initial residual = 0.00954505, Final residual = 0.000854751, No Iterations 11

Time = 89

smoothSolver:  Solving for Ux, Initial residual = 0.00380779, Final residual = 0.000368506, No Iterations 3
smoothSolver:  Solving for Uy, Initial residual = 0.00398749, Final residual = 0.000263298, No Iterations 4
GAMG:  Solving for p, Initial residual = 0.00978189, Final residual = 0.000819537, No Iterations 2
time step continuity errors : sum local = 0.00344431, global = 4.11587e-05, cumulative = 0.0463393
smoothSolver:  Solving for omega, Initial residual = 0.000413267, Final residual = 1.91968e-05, No Iterations 3
smoothSolver:  Solving for k, Initial residual = 0.00573459, Final residual = 0.000386869, No Iterations 3
ExecutionTime = 1.04 s  ClockTime = 1 s

scalarTransport execute: age
smoothSolver:  Solving for age, Initial residual = 0.00928507, Final residual = 0.000840976, No Iterations 11

Time = 90

smoothSolver:  Solving for Ux, Initial residual = 0.00361152, Final residual = 0.000350793, No Iterations 3
smoothSolver:  Solving for Uy, Initial residual = 0.00380032, Final residual = 0.000249273, No Iterations 4
GAMG:  Solving for p, Initial residual = 0.00946273, Final residual = 0.000790473, No Iterations 2
time step continuity errors : sum local = 0.00331685, global = 7.80703e-05, cumulative = 0.0464173
smoothSolver:  Solving for omega, Initial residual = 0.000389816, Final residual = 1.76595e-05, No Iterations 3
smoothSolver:  Solving for k, Initial residual = 0.00542598, Final residual = 0.000363951, No Iterations 3
ExecutionTime = 1.05 s  ClockTime = 1 s

scalarTransport execute: age
smoothSolver:  Solving for age, Initial residual = 0.00902083, Final residual = 0.000828959, No Iterations 11

Time = 91

smoothSolver:  Solving for Ux, Initial residual = 0.00345786, Final residual = 0.000340982, No Iterations 3
smoothSolver:  Solving for Uy, Initial residual = 0.00361154, Final residual = 0.000236281, No Iterations 4
GAMG:  Solving for p, Initial residual = 0.00917857, Final residual = 0.000769536, No Iterations 2
time step continuity errors : sum local = 0.00322224, global = 0.000110456, cumulative = 0.0465278
smoothSolver:  Solving for omega, Initial residual = 0.000372976, Final residual = 1.65853e-05, No Iterations 3
smoothSolver:  Solving for k, Initial residual = 0.00511923, Final residual = 0.000338614, No Iterations 3
ExecutionTime = 1.06 s  ClockTime = 1 s

scalarTransport execute: age
smoothSolver:  Solving for age, Initial residual = 0.00879009, Final residual = 0.00082347, No Iterations 11

Time = 92

smoothSolver:  Solving for Ux, Initial residual = 0.00331991, Final residual = 0.000185786, No Iterations 4
smoothSolver:  Solving for Uy, Initial residual = 0.0034594, Final residual = 0.000225679, No Iterations 4
GAMG:  Solving for p, Initial residual = 0.00897826, Final residual = 0.000774864, No Iterations 2
time step continuity errors : sum local = 0.00323668, global = 0.000119748, cumulative = 0.0466475
smoothSolver:  Solving for omega, Initial residual = 0.000367342, Final residual = 1.64274e-05, No Iterations 3
smoothSolver:  Solving for k, Initial residual = 0.00483171, Final residual = 0.000314261, No Iterations 3
ExecutionTime = 1.07 s  ClockTime = 1 s

scalarTransport execute: age
smoothSolver:  Solving for age, Initial residual = 0.00864914, Final residual = 0.000828385, No Iterations 11

Time = 93

smoothSolver:  Solving for Ux, Initial residual = 0.0031468, Final residual = 0.000177208, No Iterations 4
smoothSolver:  Solving for Uy, Initial residual = 0.00332844, Final residual = 0.000218081, No Iterations 4
GAMG:  Solving for p, Initial residual = 0.00843828, Final residual = 0.000756702, No Iterations 2
time step continuity errors : sum local = 0.0031518, global = 0.000110486, cumulative = 0.046758
smoothSolver:  Solving for omega, Initial residual = 0.000359907, Final residual = 1.62557e-05, No Iterations 3
smoothSolver:  Solving for k, Initial residual = 0.00453039, Final residual = 0.000292244, No Iterations 3
ExecutionTime = 1.09 s  ClockTime = 1 s

scalarTransport execute: age
smoothSolver:  Solving for age, Initial residual = 0.00852048, Final residual = 0.000829721, No Iterations 11

Time = 94

smoothSolver:  Solving for Ux, Initial residual = 0.00297415, Final residual = 0.000166363, No Iterations 4
smoothSolver:  Solving for Uy, Initial residual = 0.00318474, Final residual = 0.000212926, No Iterations 4
GAMG:  Solving for p, Initial residual = 0.00787249, Final residual = 0.00069868, No Iterations 2
time step continuity errors : sum local = 0.0029027, global = 8.39993e-05, cumulative = 0.046842
smoothSolver:  Solving for omega, Initial residual = 0.000344049, Final residual = 1.56623e-05, No Iterations 3
smoothSolver:  Solving for k, Initial residual = 0.00418985, Final residual = 0.00027353, No Iterations 3
ExecutionTime = 1.1 s  ClockTime = 1 s

scalarTransport execute: age
smoothSolver:  Solving for age, Initial residual = 0.00824927, Final residual = 0.000715286, No Iterations 12

Time = 95

smoothSolver:  Solving for Ux, Initial residual = 0.0027842, Final residual = 0.000154439, No Iterations 4
smoothSolver:  Solving for Uy, Initial residual = 0.00301752, Final residual = 0.000207036, No Iterations 4
GAMG:  Solving for p, Initial residual = 0.0073468, Final residual = 0.000612336, No Iterations 2
time step continuity errors : sum local = 0.00253843, global = 4.67565e-05, cumulative = 0.0468888
smoothSolver:  Solving for omega, Initial residual = 0.000319127, Final residual = 1.47042e-05, No Iterations 3
smoothSolver:  Solving for k, Initial residual = 0.00384757, Final residual = 0.000256555, No Iterations 3
ExecutionTime = 1.11 s  ClockTime = 1 s

scalarTransport execute: age
smoothSolver:  Solving for age, Initial residual = 0.00792567, Final residual = 0.000698883, No Iterations 12

Time = 96

smoothSolver:  Solving for Ux, Initial residual = 0.00258812, Final residual = 0.000144527, No Iterations 4
smoothSolver:  Solving for Uy, Initial residual = 0.00280743, Final residual = 0.000196631, No Iterations 4
GAMG:  Solving for p, Initial residual = 0.00691325, Final residual = 0.000527075, No Iterations 2
[...]

smoothSolver:  Solving for Ux, Initial residual = 4.94967e-07, Final residual = 4.29757e-08, No Iterations 3
smoothSolver:  Solving for Uy, Initial residual = 5.22539e-07, Final residual = 3.27743e-08, No Iterations 4
GAMG:  Solving for p, Initial residual = 1.37758e-06, Final residual = 1.01864e-07, No Iterations 2
time step continuity errors : sum local = 4.1696e-07, global = -2.11343e-08, cumulative = 0.0438152
smoothSolver:  Solving for omega, Initial residual = 5.85163e-08, Final residual = 4.85994e-09, No Iterations 2
smoothSolver:  Solving for k, Initial residual = 3.65996e-07, Final residual = 2.45685e-08, No Iterations 3
ExecutionTime = 6.17 s  ClockTime = 6 s

scalarTransport execute: age
smoothSolver:  Solving for age, Initial residual = 0.000467543, Final residual = 4.50521e-05, No Iterations 14

Time = 545

smoothSolver:  Solving for Ux, Initial residual = 4.82315e-07, Final residual = 4.20488e-08, No Iterations 3
smoothSolver:  Solving for Uy, Initial residual = 5.13102e-07, Final residual = 3.24457e-08, No Iterations 4
GAMG:  Solving for p, Initial residual = 1.31005e-06, Final residual = 9.68223e-08, No Iterations 2
time step continuity errors : sum local = 3.96321e-07, global = -2.0753e-08, cumulative = 0.0438151
smoothSolver:  Solving for omega, Initial residual = 4.67724e-08, Final residual = 4.66396e-09, No Iterations 2
smoothSolver:  Solving for k, Initial residual = 3.62041e-07, Final residual = 2.45602e-08, No Iterations 3
ExecutionTime = 6.18 s  ClockTime = 6 s

scalarTransport execute: age
smoothSolver:  Solving for age, Initial residual = 0.0004663, Final residual = 4.49487e-05, No Iterations 14

Time = 546

smoothSolver:  Solving for Ux, Initial residual = 4.81653e-07, Final residual = 4.15381e-08, No Iterations 3
smoothSolver:  Solving for Uy, Initial residual = 5.13968e-07, Final residual = 3.22722e-08, No Iterations 4
GAMG:  Solving for p, Initial residual = 1.36615e-06, Final residual = 9.78364e-08, No Iterations 2
time step continuity errors : sum local = 4.00472e-07, global = -2.03755e-08, cumulative = 0.0438151
smoothSolver:  Solving for omega, Initial residual = 4.78208e-08, Final residual = 4.72778e-09, No Iterations 2
smoothSolver:  Solving for k, Initial residual = 3.60002e-07, Final residual = 2.44328e-08, No Iterations 3
ExecutionTime = 6.19 s  ClockTime = 6 s

scalarTransport execute: age
smoothSolver:  Solving for age, Initial residual = 0.000465262, Final residual = 4.48594e-05, No Iterations 14

Time = 547

smoothSolver:  Solving for Ux, Initial residual = 4.75355e-07, Final residual = 4.13984e-08, No Iterations 3
smoothSolver:  Solving for Uy, Initial residual = 5.10118e-07, Final residual = 3.19942e-08, No Iterations 4
GAMG:  Solving for p, Initial residual = 1.3395e-06, Final residual = 9.67366e-08, No Iterations 2
time step continuity errors : sum local = 3.95971e-07, global = -2.00834e-08, cumulative = 0.0438151
smoothSolver:  Solving for omega, Initial residual = 5.36801e-08, Final residual = 4.74131e-09, No Iterations 2
smoothSolver:  Solving for k, Initial residual = 3.57746e-07, Final residual = 2.41611e-08, No Iterations 3
ExecutionTime = 6.2 s  ClockTime = 6 s

scalarTransport execute: age
smoothSolver:  Solving for age, Initial residual = 0.000464215, Final residual = 4.4759e-05, No Iterations 14

Time = 548

smoothSolver:  Solving for Ux, Initial residual = 4.85655e-07, Final residual = 4.13998e-08, No Iterations 3
smoothSolver:  Solving for Uy, Initial residual = 5.19325e-07, Final residual = 3.16846e-08, No Iterations 4
GAMG:  Solving for p, Initial residual = 1.59172e-06, Final residual = 1.09515e-07, No Iterations 2
time step continuity errors : sum local = 4.48278e-07, global = -1.98823e-08, cumulative = 0.0438151
smoothSolver:  Solving for omega, Initial residual = 7.24172e-08, Final residual = 4.94973e-09, No Iterations 2
smoothSolver:  Solving for k, Initial residual = 3.55735e-07, Final residual = 2.38944e-08, No Iterations 3
ExecutionTime = 6.21 s  ClockTime = 6 s

scalarTransport execute: age
smoothSolver:  Solving for age, Initial residual = 0.00046324, Final residual = 4.46718e-05, No Iterations 14

Time = 549

smoothSolver:  Solving for Ux, Initial residual = 4.77771e-07, Final residual = 4.14565e-08, No Iterations 3
smoothSolver:  Solving for Uy, Initial residual = 5.10979e-07, Final residual = 3.11443e-08, No Iterations 4
GAMG:  Solving for p, Initial residual = 1.50815e-06, Final residual = 1.04846e-07, No Iterations 2
time step continuity errors : sum local = 4.29163e-07, global = -1.99022e-08, cumulative = 0.0438151
smoothSolver:  Solving for omega, Initial residual = 7.93267e-08, Final residual = 4.88895e-09, No Iterations 2
smoothSolver:  Solving for k, Initial residual = 3.5116e-07, Final residual = 2.34367e-08, No Iterations 3
ExecutionTime = 6.22 s  ClockTime = 6 s

scalarTransport execute: age
smoothSolver:  Solving for age, Initial residual = 0.000462332, Final residual = 4.4573e-05, No Iterations 14

Time = 550

smoothSolver:  Solving for Ux, Initial residual = 4.60698e-07, Final residual = 4.03823e-08, No Iterations 3
smoothSolver:  Solving for Uy, Initial residual = 4.89283e-07, Final residual = 3.03105e-08, No Iterations 4
GAMG:  Solving for p, Initial residual = 1.21315e-06, Final residual = 9.26144e-08, No Iterations 2
time step continuity errors : sum local = 3.79098e-07, global = -1.99119e-08, cumulative = 0.043815
smoothSolver:  Solving for omega, Initial residual = 5.83758e-08, Final residual = 4.46079e-09, No Iterations 2
smoothSolver:  Solving for k, Initial residual = 3.44052e-07, Final residual = 2.27771e-08, No Iterations 3
ExecutionTime = 6.23 s  ClockTime = 6 s

scalarTransport execute: age
smoothSolver:  Solving for age, Initial residual = 0.000461258, Final residual = 4.44731e-05, No Iterations 14

Time = 551

smoothSolver:  Solving for Ux, Initial residual = 4.48579e-07, Final residual = 3.99562e-08, No Iterations 3
smoothSolver:  Solving for Uy, Initial residual = 4.75378e-07, Final residual = 2.9745e-08, No Iterations 4
GAMG:  Solving for p, Initial residual = 1.17724e-06, Final residual = 8.88058e-08, No Iterations 2
time step continuity errors : sum local = 3.63508e-07, global = -1.98839e-08, cumulative = 0.043815
smoothSolver:  Solving for omega, Initial residual = 4.67133e-08, Final residual = 4.27061e-09, No Iterations 2
smoothSolver:  Solving for k, Initial residual = 3.36474e-07, Final residual = 2.2079e-08, No Iterations 3
ExecutionTime = 6.24 s  ClockTime = 6 s

scalarTransport execute: age
smoothSolver:  Solving for age, Initial residual = 0.000460138, Final residual = 4.43747e-05, No Iterations 14

Time = 552

smoothSolver:  Solving for Ux, Initial residual = 4.3778e-07, Final residual = 3.95791e-08, No Iterations 3
smoothSolver:  Solving for Uy, Initial residual = 4.67231e-07, Final residual = 2.9429e-08, No Iterations 4
GAMG:  Solving for p, Initial residual = 1.15252e-06, Final residual = 8.69802e-08, No Iterations 2
time step continuity errors : sum local = 3.56035e-07, global = -1.98996e-08, cumulative = 0.043815
smoothSolver:  Solving for omega, Initial residual = 3.80776e-08, Final residual = 4.08307e-09, No Iterations 2
smoothSolver:  Solving for k, Initial residual = 3.28712e-07, Final residual = 2.13493e-08, No Iterations 3
ExecutionTime = 6.26 s  ClockTime = 6 s

scalarTransport execute: age
smoothSolver:  Solving for age, Initial residual = 0.000459099, Final residual = 4.42781e-05, No Iterations 14

Time = 553

smoothSolver:  Solving for Ux, Initial residual = 4.30488e-07, Final residual = 3.89835e-08, No Iterations 3
smoothSolver:  Solving for Uy, Initial residual = 4.58914e-07, Final residual = 2.91254e-08, No Iterations 4
GAMG:  Solving for p, Initial residual = 1.10617e-06, Final residual = 8.54684e-08, No Iterations 2
time step continuity errors : sum local = 3.49847e-07, global = -1.99083e-08, cumulative = 0.043815
smoothSolver:  Solving for omega, Initial residual = 3.41915e-08, Final residual = 9.867e-09, No Iterations 1
smoothSolver:  Solving for k, Initial residual = 3.25179e-07, Final residual = 2.09897e-08, No Iterations 3
ExecutionTime = 6.27 s  ClockTime = 6 s

scalarTransport execute: age
smoothSolver:  Solving for age, Initial residual = 0.000458099, Final residual = 4.41844e-05, No Iterations 14

Time = 554

smoothSolver:  Solving for Ux, Initial residual = 4.22575e-07, Final residual = 3.8232e-08, No Iterations 3
smoothSolver:  Solving for Uy, Initial residual = 4.51105e-07, Final residual = 2.87972e-08, No Iterations 4
GAMG:  Solving for p, Initial residual = 1.09916e-06, Final residual = 8.45416e-08, No Iterations 2
time step continuity errors : sum local = 3.46053e-07, global = -1.98696e-08, cumulative = 0.043815
smoothSolver:  Solving for omega, Initial residual = 3.6925e-08, Final residual = 4.50341e-09, No Iterations 2
smoothSolver:  Solving for k, Initial residual = 3.177e-07, Final residual = 2.04945e-08, No Iterations 3
ExecutionTime = 6.28 s  ClockTime = 6 s

scalarTransport execute: age
smoothSolver:  Solving for age, Initial residual = 0.000457108, Final residual = 4.40907e-05, No Iterations 14

Time = 555

smoothSolver:  Solving for Ux, Initial residual = 4.72608e-07, Final residual = 3.77394e-08, No Iterations 3
smoothSolver:  Solving for Uy, Initial residual = 5.09522e-07, Final residual = 4.99257e-08, No Iterations 3
GAMG:  Solving for p, Initial residual = 1.77697e-06, Final residual = 1.1791e-07, No Iterations 2
time step continuity errors : sum local = 4.82638e-07, global = -1.97833e-08, cumulative = 0.0438149
smoothSolver:  Solving for omega, Initial residual = 8.36228e-08, Final residual = 4.88012e-09, No Iterations 2
smoothSolver:  Solving for k, Initial residual = 3.09596e-07, Final residual = 2.00765e-08, No Iterations 3
ExecutionTime = 6.29 s  ClockTime = 6 s

scalarTransport execute: age
smoothSolver:  Solving for age, Initial residual = 0.000456568, Final residual = 4.40224e-05, No Iterations 14

Time = 556

smoothSolver:  Solving for Ux, Initial residual = 4.38629e-07, Final residual = 3.67862e-08, No Iterations 3
smoothSolver:  Solving for Uy, Initial residual = 4.76854e-07, Final residual = 2.84925e-08, No Iterations 4
GAMG:  Solving for p, Initial residual = 1.59185e-06, Final residual = 1.05156e-07, No Iterations 2
time step continuity errors : sum local = 4.30432e-07, global = -2.00387e-08, cumulative = 0.0438149
smoothSolver:  Solving for omega, Initial residual = 1.01507e-07, Final residual = 4.75097e-09, No Iterations 2
smoothSolver:  Solving for k, Initial residual = 3.01385e-07, Final residual = 1.98647e-08, No Iterations 3
ExecutionTime = 6.3 s  ClockTime = 6 s

scalarTransport execute: age
smoothSolver:  Solving for age, Initial residual = 0.000455776, Final residual = 4.39215e-05, No Iterations 14

Time = 557

smoothSolver:  Solving for Ux, Initial residual = 5.71047e-07, Final residual = 3.48877e-08, No Iterations 3
smoothSolver:  Solving for Uy, Initial residual = 5.99248e-07, Final residual = 4.78881e-08, No Iterations 3
GAMG:  Solving for p, Initial residual = 1.85408e-06, Final residual = 1.16871e-07, No Iterations 2
time step continuity errors : sum local = 4.78388e-07, global = -1.99137e-08, cumulative = 0.0438149
smoothSolver:  Solving for omega, Initial residual = 1.19945e-07, Final residual = 4.91014e-09, No Iterations 2
smoothSolver:  Solving for k, Initial residual = 2.94825e-07, Final residual = 1.98186e-08, No Iterations 3
ExecutionTime = 6.31 s  ClockTime = 6 s

scalarTransport execute: age
smoothSolver:  Solving for age, Initial residual = 0.000454785, Final residual = 4.38313e-05, No Iterations 14

Time = 558

smoothSolver:  Solving for Ux, Initial residual = 4.29752e-07, Final residual = 3.42108e-08, No Iterations 3
smoothSolver:  Solving for Uy, Initial residual = 4.69138e-07, Final residual = 2.71234e-08, No Iterations 4
GAMG:  Solving for p, Initial residual = 1.75669e-06, Final residual = 1.11858e-07, No Iterations 2
time step continuity errors : sum local = 4.57866e-07, global = -1.97574e-08, cumulative = 0.0438149
smoothSolver:  Solving for omega, Initial residual = 1.29035e-07, Final residual = 4.82978e-09, No Iterations 2
smoothSolver:  Solving for k, Initial residual = 2.90128e-07, Final residual = 1.97159e-08, No Iterations 3
ExecutionTime = 6.32 s  ClockTime = 6 s

scalarTransport execute: age
smoothSolver:  Solving for age, Initial residual = 0.00045398, Final residual = 4.37443e-05, No Iterations 14

Time = 559

smoothSolver:  Solving for Ux, Initial residual = 3.9654e-07, Final residual = 3.28875e-08, No Iterations 3
smoothSolver:  Solving for Uy, Initial residual = 4.30972e-07, Final residual = 2.61729e-08, No Iterations 4
GAMG:  Solving for p, Initial residual = 1.30862e-06, Final residual = 9.25322e-08, No Iterations 2
time step continuity errors : sum local = 3.78761e-07, global = -1.93112e-08, cumulative = 0.0438149
smoothSolver:  Solving for omega, Initial residual = 7.33958e-08, Final residual = 3.98548e-09, No Iterations 2
smoothSolver:  Solving for k, Initial residual = 2.8686e-07, Final residual = 1.94255e-08, No Iterations 3
ExecutionTime = 6.33 s  ClockTime = 6 s

scalarTransport execute: age
smoothSolver:  Solving for age, Initial residual = 0.000453024, Final residual = 4.3646e-05, No Iterations 14

Time = 560

smoothSolver:  Solving for Ux, Initial residual = 4.31134e-07, Final residual = 3.29792e-08, No Iterations 3
smoothSolver:  Solving for Uy, Initial residual = 4.67291e-07, Final residual = 4.53705e-08, No Iterations 3
GAMG:  Solving for p, Initial residual = 1.58302e-06, Final residual = 1.04477e-07, No Iterations 2
time step continuity errors : sum local = 4.27656e-07, global = -1.67122e-08, cumulative = 0.0438148
smoothSolver:  Solving for omega, Initial residual = 6.30958e-08, Final residual = 4.15645e-09, No Iterations 2
smoothSolver:  Solving for k, Initial residual = 2.84336e-07, Final residual = 1.90816e-08, No Iterations 3
ExecutionTime = 6.34 s  ClockTime = 6 s

scalarTransport execute: age
smoothSolver:  Solving for age, Initial residual = 0.000452083, Final residual = 4.35575e-05, No Iterations 14

Time = 561

smoothSolver:  Solving for Ux, Initial residual = 4.01681e-07, Final residual = 3.34013e-08, No Iterations 3
smoothSolver:  Solving for Uy, Initial residual = 4.38785e-07, Final residual = 2.61301e-08, No Iterations 4
GAMG:  Solving for p, Initial residual = 1.53813e-06, Final residual = 1.00839e-07, No Iterations 2
time step continuity errors : sum local = 4.12765e-07, global = -1.57975e-08, cumulative = 0.0438148
smoothSolver:  Solving for omega, Initial residual = 8.8287e-08, Final residual = 4.28276e-09, No Iterations 2
smoothSolver:  Solving for k, Initial residual = 2.82098e-07, Final residual = 1.88466e-08, No Iterations 3
ExecutionTime = 6.36 s  ClockTime = 6 s

scalarTransport execute: age
smoothSolver:  Solving for age, Initial residual = 0.000451004, Final residual = 4.34587e-05, No Iterations 14

Time = 562

smoothSolver:  Solving for Ux, Initial residual = 3.81141e-07, Final residual = 3.27332e-08, No Iterations 3
smoothSolver:  Solving for Uy, Initial residual = 4.12331e-07, Final residual = 2.54444e-08, No Iterations 4
GAMG:  Solving for p, Initial residual = 1.15647e-06, Final residual = 8.32216e-08, No Iterations 2
time step continuity errors : sum local = 3.40651e-07, global = -1.50884e-08, cumulative = 0.0438148
smoothSolver:  Solving for omega, Initial residual = 5.52507e-08, Final residual = 3.74518e-09, No Iterations 2
smoothSolver:  Solving for k, Initial residual = 2.78042e-07, Final residual = 1.8453e-08, No Iterations 3
ExecutionTime = 6.37 s  ClockTime = 6 s

scalarTransport execute: age
smoothSolver:  Solving for age, Initial residual = 0.000449913, Final residual = 4.3364e-05, No Iterations 14

Time = 563

smoothSolver:  Solving for Ux, Initial residual = 3.73098e-07, Final residual = 3.26833e-08, No Iterations 3
smoothSolver:  Solving for Uy, Initial residual = 3.98448e-07, Final residual = 2.48661e-08, No Iterations 4
GAMG:  Solving for p, Initial residual = 1.08317e-06, Final residual = 7.69911e-08, No Iterations 2
time step continuity errors : sum local = 3.15147e-07, global = -1.44257e-08, cumulative = 0.0438148
smoothSolver:  Solving for omega, Initial residual = 4.12629e-08, Final residual = 9.3833e-09, No Iterations 1
smoothSolver:  Solving for k, Initial residual = 2.77201e-07, Final residual = 1.83433e-08, No Iterations 3
ExecutionTime = 6.38 s  ClockTime = 6 s

scalarTransport execute: age
smoothSolver:  Solving for age, Initial residual = 0.000448717, Final residual = 4.32684e-05, No Iterations 14

Time = 564

smoothSolver:  Solving for Ux, Initial residual = 3.65486e-07, Final residual = 3.27657e-08, No Iterations 3
smoothSolver:  Solving for Uy, Initial residual = 3.90446e-07, Final residual = 2.4582e-08, No Iterations 4
GAMG:  Solving for p, Initial residual = 1.03035e-06, Final residual = 7.36029e-08, No Iterations 2
time step continuity errors : sum local = 3.01278e-07, global = -1.40356e-08, cumulative = 0.0438148
smoothSolver:  Solving for omega, Initial residual = 3.64381e-08, Final residual = 9.6498e-09, No Iterations 1
smoothSolver:  Solving for k, Initial residual = 2.7557e-07, Final residual = 1.83109e-08, No Iterations 3
ExecutionTime = 6.39 s  ClockTime = 6 s

scalarTransport execute: age
smoothSolver:  Solving for age, Initial residual = 0.000447691, Final residual = 4.31747e-05, No Iterations 14

Time = 565

smoothSolver:  Solving for Ux, Initial residual = 3.68879e-07, Final residual = 3.27284e-08, No Iterations 3
smoothSolver:  Solving for Uy, Initial residual = 3.93616e-07, Final residual = 2.43755e-08, No Iterations 4
GAMG:  Solving for p, Initial residual = 1.16681e-06, Final residual = 8.02404e-08, No Iterations 2
time step continuity errors : sum local = 3.28448e-07, global = -1.39314e-08, cumulative = 0.0438148
smoothSolver:  Solving for omega, Initial residual = 4.87133e-08, Final residual = 4.32835e-09, No Iterations 2
smoothSolver:  Solving for k, Initial residual = 2.68161e-07, Final residual = 1.77205e-08, No Iterations 3
ExecutionTime = 6.4 s  ClockTime = 6 s

scalarTransport execute: age
smoothSolver:  Solving for age, Initial residual = 0.000446848, Final residual = 4.30941e-05, No Iterations 14

Time = 566

smoothSolver:  Solving for Ux, Initial residual = 3.63044e-07, Final residual = 3.25063e-08, No Iterations 3
smoothSolver:  Solving for Uy, Initial residual = 3.89135e-07, Final residual = 2.41046e-08, No Iterations 4
GAMG:  Solving for p, Initial residual = 1.12335e-06, Final residual = 7.71505e-08, No Iterations 2
time step continuity errors : sum local = 3.158e-07, global = -1.41137e-08, cumulative = 0.0438148
smoothSolver:  Solving for omega, Initial residual = 5.29111e-08, Final residual = 4.00246e-09, No Iterations 2
smoothSolver:  Solving for k, Initial residual = 2.60055e-07, Final residual = 1.68278e-08, No Iterations 3
ExecutionTime = 6.41 s  ClockTime = 6 s

scalarTransport execute: age
smoothSolver:  Solving for age, Initial residual = 0.000445924, Final residual = 4.29995e-05, No Iterations 14

Time = 567

smoothSolver:  Solving for Ux, Initial residual = 3.55014e-07, Final residual = 3.15992e-08, No Iterations 3
smoothSolver:  Solving for Uy, Initial residual = 3.78347e-07, Final residual = 2.37934e-08, No Iterations 4
GAMG:  Solving for p, Initial residual = 9.67295e-07, Final residual = 7.11252e-08, No Iterations 2
time step continuity errors : sum local = 2.91137e-07, global = -1.43145e-08, cumulative = 0.0438147
smoothSolver:  Solving for omega, Initial residual = 4.63927e-08, Final residual = 9.70346e-09, No Iterations 1
smoothSolver:  Solving for k, Initial residual = 2.5729e-07, Final residual = 1.64941e-08, No Iterations 3
ExecutionTime = 6.42 s  ClockTime = 6 s


SIMPLE solution converged in 567 iterations

scalarTransport execute: age
smoothSolver:  Solving for age, Initial residual = 0.000444907, Final residual = 4.29075e-05, No Iterations 14

End

