/*---------------------------------------------------------------------------*\
| =========                 |                                                 |
| \\      /  F ield         | OpenFOAM: The Open Source CFD Toolbox           |
|  \\    /   O peration     | Version:  v2012                                 |
|   \\  /    A nd           | Website:  www.openfoam.com                      |
|    \\/     M anipulation  |                                                 |
\*---------------------------------------------------------------------------*/
Build  : _7bdb509494-20201222 OPENFOAM=2012
Arch   : "LSB;label=32;scalar=64"
Exec   : simpleFoam
Date   : Feb 23 2023
Time   : 23:56:54
Host   : johnsDesktop
PID    : 18616
I/O    : uncollated
Case   : /home/john/of_runs/cases/dbl_0_4_485_2
nProcs : 1
trapFpe: Floating point exception trapping enabled (FOAM_SIGFPE).
fileModificationChecking : Monitoring run-time modified files using timeStampMaster (fileModificationSkew 5, maxFileModificationPolls 20)
allowSystemOperations : Allowing user-supplied system call operations

// * * * * * * * * * * * * * * * * * * * * * * * * * * * * * * * * * * * * * //
Create time

Create mesh for time = 0


SIMPLE: convergence criteria
    field p	 tolerance 1e-06
    field U	 tolerance 1e-06
    field "(k|epsilon|omega|f|v2|age)"	 tolerance 1e-05

Reading field p

Reading field U

Reading/calculating face flux field phi

Selecting incompressible transport model Newtonian
Selecting turbulence model type RAS
Selecting RAS turbulence model kOmegaSST
Selecting patchDistMethod meshWave
RAS
{
    RASModel        kOmegaSST;
    turbulence      on;
    printCoeffs     on;
    alphaK1         0.85;
    alphaK2         1;
    alphaOmega1     0.5;
    alphaOmega2     0.856;
    gamma1          0.555556;
    gamma2          0.44;
    beta1           0.075;
    beta2           0.0828;
    betaStar        0.09;
    a1              0.31;
    b1              1;
    c1              10;
    F3              false;
    decayControl    false;
    kInf            0;
    omegaInf        0;
}

No MRF models present

No finite volume options present

Starting time loop

Selecting finite volume options type scalarSemiImplicitSource
    Source: unitySource
    - selecting all cells
    - selected 6544 cell(s) with volume 0.0316
Time = 1

smoothSolver:  Solving for Ux, Initial residual = 0, Final residual = 0, No Iterations 0
smoothSolver:  Solving for Uy, Initial residual = 1, Final residual = 0.0686675, No Iterations 1
GAMG:  Solving for p, Initial residual = 1, Final residual = 0.0365117, No Iterations 6
time step continuity errors : sum local = 0.00231086, global = -0.000642096, cumulative = -0.000642096
smoothSolver:  Solving for omega, Initial residual = 0.107808, Final residual = 0.00547054, No Iterations 3
smoothSolver:  Solving for k, Initial residual = 1, Final residual = 0.0662583, No Iterations 3
ExecutionTime = 0.05 s  ClockTime = 0 s

scalarTransport execute: age
smoothSolver:  Solving for age, Initial residual = 1, Final residual = 0.0871905, No Iterations 6

Time = 2

smoothSolver:  Solving for Ux, Initial residual = 0.496938, Final residual = 0.0496448, No Iterations 5
smoothSolver:  Solving for Uy, Initial residual = 0.23135, Final residual = 0.0224635, No Iterations 4
GAMG:  Solving for p, Initial residual = 0.0693631, Final residual = 0.00352213, No Iterations 3
time step continuity errors : sum local = 0.0225069, global = 0.00407152, cumulative = 0.00342943
smoothSolver:  Solving for omega, Initial residual = 0.0645698, Final residual = 0.00427957, No Iterations 3
smoothSolver:  Solving for k, Initial residual = 0.474327, Final residual = 0.0295887, No Iterations 4
ExecutionTime = 0.07 s  ClockTime = 0 s

scalarTransport execute: age
smoothSolver:  Solving for age, Initial residual = 0.605344, Final residual = 0.0580695, No Iterations 7

Time = 3

smoothSolver:  Solving for Ux, Initial residual = 0.202306, Final residual = 0.0153008, No Iterations 5
smoothSolver:  Solving for Uy, Initial residual = 0.0977231, Final residual = 0.00877354, No Iterations 4
GAMG:  Solving for p, Initial residual = 0.0517764, Final residual = 0.00202393, No Iterations 3
time step continuity errors : sum local = 0.00863844, global = 0.00103269, cumulative = 0.00446212
smoothSolver:  Solving for omega, Initial residual = 0.0208171, Final residual = 0.00147806, No Iterations 4
smoothSolver:  Solving for k, Initial residual = 0.298049, Final residual = 0.0247892, No Iterations 4
ExecutionTime = 0.08 s  ClockTime = 0 s

scalarTransport execute: age
smoothSolver:  Solving for age, Initial residual = 0.385945, Final residual = 0.035662, No Iterations 8

Time = 4

smoothSolver:  Solving for Ux, Initial residual = 0.10632, Final residual = 0.00972658, No Iterations 4
smoothSolver:  Solving for Uy, Initial residual = 0.0639485, Final residual = 0.0049407, No Iterations 4
GAMG:  Solving for p, Initial residual = 0.0772748, Final residual = 0.00474414, No Iterations 2
time step continuity errors : sum local = 0.0132285, global = 0.00154672, cumulative = 0.00600884
smoothSolver:  Solving for omega, Initial residual = 0.0133146, Final residual = 0.00101403, No Iterations 4
smoothSolver:  Solving for k, Initial residual = 0.213855, Final residual = 0.0209043, No Iterations 4
ExecutionTime = 0.09 s  ClockTime = 0 s

scalarTransport execute: age
smoothSolver:  Solving for age, Initial residual = 0.266174, Final residual = 0.0262069, No Iterations 9

Time = 5

smoothSolver:  Solving for Ux, Initial residual = 0.0825391, Final residual = 0.00823919, No Iterations 4
smoothSolver:  Solving for Uy, Initial residual = 0.0530422, Final residual = 0.0042199, No Iterations 4
GAMG:  Solving for p, Initial residual = 0.0669451, Final residual = 0.00396087, No Iterations 2
time step continuity errors : sum local = 0.0113233, global = 0.00174483, cumulative = 0.00775367
smoothSolver:  Solving for omega, Initial residual = 0.00832046, Final residual = 0.00070285, No Iterations 4
smoothSolver:  Solving for k, Initial residual = 0.159939, Final residual = 0.0102616, No Iterations 5
ExecutionTime = 0.1 s  ClockTime = 0 s

scalarTransport execute: age
smoothSolver:  Solving for age, Initial residual = 0.199755, Final residual = 0.0186151, No Iterations 10

Time = 6

smoothSolver:  Solving for Ux, Initial residual = 0.0728587, Final residual = 0.00467224, No Iterations 5
smoothSolver:  Solving for Uy, Initial residual = 0.0466916, Final residual = 0.00381725, No Iterations 4
GAMG:  Solving for p, Initial residual = 0.056663, Final residual = 0.00286507, No Iterations 2
time step continuity errors : sum local = 0.00850068, global = 0.00131151, cumulative = 0.00906518
smoothSolver:  Solving for omega, Initial residual = 0.00617639, Final residual = 0.000509372, No Iterations 4
smoothSolver:  Solving for k, Initial residual = 0.127049, Final residual = 0.00872125, No Iterations 5
ExecutionTime = 0.12 s  ClockTime = 0 s

scalarTransport execute: age
smoothSolver:  Solving for age, Initial residual = 0.158151, Final residual = 0.0155057, No Iterations 10

Time = 7

smoothSolver:  Solving for Ux, Initial residual = 0.0668247, Final residual = 0.00438519, No Iterations 5
smoothSolver:  Solving for Uy, Initial residual = 0.0421662, Final residual = 0.00370346, No Iterations 4
GAMG:  Solving for p, Initial residual = 0.0509412, Final residual = 0.00223663, No Iterations 2
time step continuity errors : sum local = 0.00681927, global = 0.000996763, cumulative = 0.0100619
smoothSolver:  Solving for omega, Initial residual = 0.00486175, Final residual = 0.000382025, No Iterations 4
smoothSolver:  Solving for k, Initial residual = 0.105002, Final residual = 0.00752672, No Iterations 5
ExecutionTime = 0.13 s  ClockTime = 0 s

scalarTransport execute: age
smoothSolver:  Solving for age, Initial residual = 0.132684, Final residual = 0.0116267, No Iterations 11

Time = 8

smoothSolver:  Solving for Ux, Initial residual = 0.0614011, Final residual = 0.00396686, No Iterations 5
smoothSolver:  Solving for Uy, Initial residual = 0.039909, Final residual = 0.00360781, No Iterations 4
GAMG:  Solving for p, Initial residual = 0.05066, Final residual = 0.00235611, No Iterations 2
time step continuity errors : sum local = 0.00732597, global = 0.000854168, cumulative = 0.0109161
smoothSolver:  Solving for omega, Initial residual = 0.00392868, Final residual = 0.00029835, No Iterations 4
smoothSolver:  Solving for k, Initial residual = 0.0895108, Final residual = 0.00657572, No Iterations 5
ExecutionTime = 0.14 s  ClockTime = 0 s

scalarTransport execute: age
smoothSolver:  Solving for age, Initial residual = 0.117627, Final residual = 0.0108247, No Iterations 11

Time = 9

smoothSolver:  Solving for Ux, Initial residual = 0.0562773, Final residual = 0.00561901, No Iterations 4
smoothSolver:  Solving for Uy, Initial residual = 0.0384658, Final residual = 0.00345227, No Iterations 4
GAMG:  Solving for p, Initial residual = 0.0520865, Final residual = 0.00232241, No Iterations 2
time step continuity errors : sum local = 0.00728539, global = 0.000815618, cumulative = 0.0117317
smoothSolver:  Solving for omega, Initial residual = 0.00325953, Final residual = 0.000239974, No Iterations 4
smoothSolver:  Solving for k, Initial residual = 0.0778834, Final residual = 0.00580843, No Iterations 5
ExecutionTime = 0.16 s  ClockTime = 0 s

scalarTransport execute: age
smoothSolver:  Solving for age, Initial residual = 0.107392, Final residual = 0.0101835, No Iterations 11

Time = 10

smoothSolver:  Solving for Ux, Initial residual = 0.0524761, Final residual = 0.00512963, No Iterations 4
smoothSolver:  Solving for Uy, Initial residual = 0.0370797, Final residual = 0.00322445, No Iterations 4
GAMG:  Solving for p, Initial residual = 0.0519352, Final residual = 0.00239298, No Iterations 2
time step continuity errors : sum local = 0.00754679, global = 0.00084093, cumulative = 0.0125727
smoothSolver:  Solving for omega, Initial residual = 0.00287082, Final residual = 0.000197813, No Iterations 4
smoothSolver:  Solving for k, Initial residual = 0.0689472, Final residual = 0.00516031, No Iterations 5
ExecutionTime = 0.17 s  ClockTime = 0 s

scalarTransport execute: age
smoothSolver:  Solving for age, Initial residual = 0.0983791, Final residual = 0.00918889, No Iterations 11

Time = 11

smoothSolver:  Solving for Ux, Initial residual = 0.0502059, Final residual = 0.00472524, No Iterations 4
smoothSolver:  Solving for Uy, Initial residual = 0.0361728, Final residual = 0.00300367, No Iterations 4
GAMG:  Solving for p, Initial residual = 0.0520988, Final residual = 0.00246599, No Iterations 2
time step continuity errors : sum local = 0.0078142, global = 0.00087537, cumulative = 0.013448
smoothSolver:  Solving for omega, Initial residual = 0.00262156, Final residual = 0.000164837, No Iterations 4
smoothSolver:  Solving for k, Initial residual = 0.0619789, Final residual = 0.00460358, No Iterations 5
ExecutionTime = 0.18 s  ClockTime = 0 s

scalarTransport execute: age
smoothSolver:  Solving for age, Initial residual = 0.0896692, Final residual = 0.00814165, No Iterations 11

Time = 12

smoothSolver:  Solving for Ux, Initial residual = 0.0486905, Final residual = 0.00437746, No Iterations 4
smoothSolver:  Solving for Uy, Initial residual = 0.0349854, Final residual = 0.00277734, No Iterations 4
GAMG:  Solving for p, Initial residual = 0.0519306, Final residual = 0.00258241, No Iterations 2
time step continuity errors : sum local = 0.00822914, global = 0.000864022, cumulative = 0.0143121
smoothSolver:  Solving for omega, Initial residual = 0.00249942, Final residual = 0.000239874, No Iterations 3
smoothSolver:  Solving for k, Initial residual = 0.0567032, Final residual = 0.00413735, No Iterations 5
ExecutionTime = 0.19 s  ClockTime = 0 s

scalarTransport execute: age
smoothSolver:  Solving for age, Initial residual = 0.0809869, Final residual = 0.00734695, No Iterations 11

Time = 13

smoothSolver:  Solving for Ux, Initial residual = 0.0474461, Final residual = 0.00406608, No Iterations 4
smoothSolver:  Solving for Uy, Initial residual = 0.0333565, Final residual = 0.00255363, No Iterations 4
GAMG:  Solving for p, Initial residual = 0.0519812, Final residual = 0.00277474, No Iterations 2
time step continuity errors : sum local = 0.00890382, global = 0.000912892, cumulative = 0.0152249
smoothSolver:  Solving for omega, Initial residual = 0.00244687, Final residual = 0.000210614, No Iterations 3
smoothSolver:  Solving for k, Initial residual = 0.0523213, Final residual = 0.00372503, No Iterations 5
ExecutionTime = 0.2 s  ClockTime = 0 s

scalarTransport execute: age
smoothSolver:  Solving for age, Initial residual = 0.0719562, Final residual = 0.00656932, No Iterations 11

Time = 14

smoothSolver:  Solving for Ux, Initial residual = 0.0460639, Final residual = 0.00382632, No Iterations 4
smoothSolver:  Solving for Uy, Initial residual = 0.0314666, Final residual = 0.0023266, No Iterations 4
GAMG:  Solving for p, Initial residual = 0.0518525, Final residual = 0.00299274, No Iterations 2
time step continuity errors : sum local = 0.00973249, global = 0.000985849, cumulative = 0.0162108
smoothSolver:  Solving for omega, Initial residual = 0.00232558, Final residual = 0.000186088, No Iterations 3
smoothSolver:  Solving for k, Initial residual = 0.0485244, Final residual = 0.00335625, No Iterations 5
ExecutionTime = 0.22 s  ClockTime = 0 s

scalarTransport execute: age
smoothSolver:  Solving for age, Initial residual = 0.0650728, Final residual = 0.00604098, No Iterations 11

Time = 15

smoothSolver:  Solving for Ux, Initial residual = 0.0445658, Final residual = 0.00363691, No Iterations 4
smoothSolver:  Solving for Uy, Initial residual = 0.0296691, Final residual = 0.00211011, No Iterations 4
GAMG:  Solving for p, Initial residual = 0.0519263, Final residual = 0.00325595, No Iterations 2
time step continuity errors : sum local = 0.0107351, global = 0.00106042, cumulative = 0.0172712
smoothSolver:  Solving for omega, Initial residual = 0.00224657, Final residual = 0.000166374, No Iterations 3
smoothSolver:  Solving for k, Initial residual = 0.0449229, Final residual = 0.00302696, No Iterations 5
ExecutionTime = 0.23 s  ClockTime = 0 s

scalarTransport execute: age
smoothSolver:  Solving for age, Initial residual = 0.059232, Final residual = 0.00561228, No Iterations 11

Time = 16

smoothSolver:  Solving for Ux, Initial residual = 0.0430261, Final residual = 0.00347517, No Iterations 4
smoothSolver:  Solving for Uy, Initial residual = 0.0281327, Final residual = 0.00191622, No Iterations 4
GAMG:  Solving for p, Initial residual = 0.0518619, Final residual = 0.00350696, No Iterations 2
time step continuity errors : sum local = 0.0117108, global = 0.00107953, cumulative = 0.0183507
smoothSolver:  Solving for omega, Initial residual = 0.0021938, Final residual = 0.000150676, No Iterations 3
smoothSolver:  Solving for k, Initial residual = 0.0415855, Final residual = 0.00273762, No Iterations 5
ExecutionTime = 0.24 s  ClockTime = 0 s

scalarTransport execute: age
smoothSolver:  Solving for age, Initial residual = 0.0540418, Final residual = 0.00519208, No Iterations 11

Time = 17

smoothSolver:  Solving for Ux, Initial residual = 0.0419976, Final residual = 0.00334175, No Iterations 4
smoothSolver:  Solving for Uy, Initial residual = 0.0266664, Final residual = 0.00177454, No Iterations 4
GAMG:  Solving for p, Initial residual = 0.0519991, Final residual = 0.00364052, No Iterations 2
time step continuity errors : sum local = 0.0122678, global = 0.0010682, cumulative = 0.0194189
smoothSolver:  Solving for omega, Initial residual = 0.00215074, Final residual = 0.000137349, No Iterations 3
smoothSolver:  Solving for k, Initial residual = 0.0383969, Final residual = 0.00247943, No Iterations 5
ExecutionTime = 0.25 s  ClockTime = 0 s

scalarTransport execute: age
smoothSolver:  Solving for age, Initial residual = 0.0498127, Final residual = 0.00481228, No Iterations 11

Time = 18

smoothSolver:  Solving for Ux, Initial residual = 0.0412156, Final residual = 0.0032555, No Iterations 4
smoothSolver:  Solving for Uy, Initial residual = 0.0254818, Final residual = 0.00170169, No Iterations 4
GAMG:  Solving for p, Initial residual = 0.0519782, Final residual = 0.00359612, No Iterations 2
time step continuity errors : sum local = 0.0121913, global = 0.00103025, cumulative = 0.0204492
smoothSolver:  Solving for omega, Initial residual = 0.00208479, Final residual = 0.000124837, No Iterations 3
smoothSolver:  Solving for k, Initial residual = 0.0353928, Final residual = 0.00224462, No Iterations 5
ExecutionTime = 0.27 s  ClockTime = 0 s

scalarTransport execute: age
smoothSolver:  Solving for age, Initial residual = 0.0467909, Final residual = 0.00449644, No Iterations 11

Time = 19

smoothSolver:  Solving for Ux, Initial residual = 0.04043, Final residual = 0.00322453, No Iterations 4
smoothSolver:  Solving for Uy, Initial residual = 0.0242371, Final residual = 0.00165582, No Iterations 4
GAMG:  Solving for p, Initial residual = 0.0506901, Final residual = 0.00359782, No Iterations 2
time step continuity errors : sum local = 0.0122409, global = 0.000998903, cumulative = 0.0214481
smoothSolver:  Solving for omega, Initial residual = 0.00199427, Final residual = 0.000113336, No Iterations 3
smoothSolver:  Solving for k, Initial residual = 0.0327754, Final residual = 0.0020328, No Iterations 5
ExecutionTime = 0.28 s  ClockTime = 0 s

scalarTransport execute: age
smoothSolver:  Solving for age, Initial residual = 0.045448, Final residual = 0.00432036, No Iterations 11

Time = 20

smoothSolver:  Solving for Ux, Initial residual = 0.0402246, Final residual = 0.00327058, No Iterations 4
smoothSolver:  Solving for Uy, Initial residual = 0.0229244, Final residual = 0.00161523, No Iterations 4
GAMG:  Solving for p, Initial residual = 0.048766, Final residual = 0.00363309, No Iterations 2
time step continuity errors : sum local = 0.0123461, global = 0.000962001, cumulative = 0.0224101
smoothSolver:  Solving for omega, Initial residual = 0.00184035, Final residual = 0.000103344, No Iterations 3
smoothSolver:  Solving for k, Initial residual = 0.030665, Final residual = 0.00300423, No Iterations 4
ExecutionTime = 0.29 s  ClockTime = 0 s

scalarTransport execute: age
smoothSolver:  Solving for age, Initial residual = 0.0456378, Final residual = 0.00429582, No Iterations 11

Time = 21

smoothSolver:  Solving for Ux, Initial residual = 0.0403188, Final residual = 0.00338949, No Iterations 4
smoothSolver:  Solving for Uy, Initial residual = 0.0223268, Final residual = 0.00158319, No Iterations 4
GAMG:  Solving for p, Initial residual = 0.0479067, Final residual = 0.00365238, No Iterations 2
time step continuity errors : sum local = 0.0124058, global = 0.000910227, cumulative = 0.0233203
smoothSolver:  Solving for omega, Initial residual = 0.00203109, Final residual = 0.000199892, No Iterations 2
smoothSolver:  Solving for k, Initial residual = 0.0294215, Final residual = 0.00277118, No Iterations 4
ExecutionTime = 0.3 s  ClockTime = 0 s

scalarTransport execute: age
smoothSolver:  Solving for age, Initial residual = 0.0459579, Final residual = 0.00444677, No Iterations 11

Time = 22

smoothSolver:  Solving for Ux, Initial residual = 0.0402624, Final residual = 0.00357216, No Iterations 4
smoothSolver:  Solving for Uy, Initial residual = 0.0221176, Final residual = 0.00156728, No Iterations 4
GAMG:  Solving for p, Initial residual = 0.0467902, Final residual = 0.00346535, No Iterations 2
time step continuity errors : sum local = 0.0117705, global = 0.000828747, cumulative = 0.0241491
smoothSolver:  Solving for omega, Initial residual = 0.00183765, Final residual = 0.00010166, No Iterations 3
smoothSolver:  Solving for k, Initial residual = 0.0288552, Final residual = 0.00256764, No Iterations 4
ExecutionTime = 0.32 s  ClockTime = 0 s

scalarTransport execute: age
smoothSolver:  Solving for age, Initial residual = 0.0460504, Final residual = 0.00452192, No Iterations 11

Time = 23

smoothSolver:  Solving for Ux, Initial residual = 0.0398423, Final residual = 0.00376449, No Iterations 4
smoothSolver:  Solving for Uy, Initial residual = 0.0214539, Final residual = 0.00156049, No Iterations 4
GAMG:  Solving for p, Initial residual = 0.0454962, Final residual = 0.00335264, No Iterations 2
time step continuity errors : sum local = 0.0113368, global = 0.000785718, cumulative = 0.0249348
smoothSolver:  Solving for omega, Initial residual = 0.00167984, Final residual = 0.000101626, No Iterations 3
smoothSolver:  Solving for k, Initial residual = 0.0285069, Final residual = 0.00239067, No Iterations 4
ExecutionTime = 0.33 s  ClockTime = 0 s

scalarTransport execute: age
smoothSolver:  Solving for age, Initial residual = 0.0456495, Final residual = 0.00393525, No Iterations 11

Time = 24

smoothSolver:  Solving for Ux, Initial residual = 0.0391497, Final residual = 0.0039091, No Iterations 4
smoothSolver:  Solving for Uy, Initial residual = 0.0203163, Final residual = 0.00156162, No Iterations 4
GAMG:  Solving for p, Initial residual = 0.0420739, Final residual = 0.00306163, No Iterations 2
time step continuity errors : sum local = 0.0103495, global = 0.000732288, cumulative = 0.0256671
smoothSolver:  Solving for omega, Initial residual = 0.00154669, Final residual = 0.000101795, No Iterations 3
smoothSolver:  Solving for k, Initial residual = 0.0280907, Final residual = 0.00224635, No Iterations 4
ExecutionTime = 0.34 s  ClockTime = 0 s

scalarTransport execute: age
smoothSolver:  Solving for age, Initial residual = 0.046891, Final residual = 0.00400232, No Iterations 10

Time = 25

smoothSolver:  Solving for Ux, Initial residual = 0.038555, Final residual = 0.00243823, No Iterations 5
smoothSolver:  Solving for Uy, Initial residual = 0.0195957, Final residual = 0.00159341, No Iterations 4
GAMG:  Solving for p, Initial residual = 0.0392426, Final residual = 0.0029546, No Iterations 2
time step continuity errors : sum local = 0.00995331, global = 0.000658, cumulative = 0.0263251
smoothSolver:  Solving for omega, Initial residual = 0.00145473, Final residual = 0.000101819, No Iterations 3
smoothSolver:  Solving for k, Initial residual = 0.0277681, Final residual = 0.00213033, No Iterations 4
ExecutionTime = 0.35 s  ClockTime = 0 s

scalarTransport execute: age
smoothSolver:  Solving for age, Initial residual = 0.0483373, Final residual = 0.00433792, No Iterations 9

Time = 26

smoothSolver:  Solving for Ux, Initial residual = 0.0378395, Final residual = 0.00240249, No Iterations 5
smoothSolver:  Solving for Uy, Initial residual = 0.0194689, Final residual = 0.00171252, No Iterations 4
GAMG:  Solving for p, Initial residual = 0.0369433, Final residual = 0.00279126, No Iterations 2
time step continuity errors : sum local = 0.00939385, global = 0.000580345, cumulative = 0.0269054
smoothSolver:  Solving for omega, Initial residual = 0.0014005, Final residual = 9.99661e-05, No Iterations 3
smoothSolver:  Solving for k, Initial residual = 0.0272026, Final residual = 0.00203515, No Iterations 4
ExecutionTime = 0.36 s  ClockTime = 0 s

scalarTransport execute: age
smoothSolver:  Solving for age, Initial residual = 0.0491648, Final residual = 0.00461532, No Iterations 8

Time = 27

smoothSolver:  Solving for Ux, Initial residual = 0.0376069, Final residual = 0.00236966, No Iterations 5
smoothSolver:  Solving for Uy, Initial residual = 0.0197673, Final residual = 0.00190741, No Iterations 4
GAMG:  Solving for p, Initial residual = 0.0355345, Final residual = 0.00271829, No Iterations 2
time step continuity errors : sum local = 0.0091147, global = 0.000508292, cumulative = 0.0274137
smoothSolver:  Solving for omega, Initial residual = 0.00136635, Final residual = 9.86587e-05, No Iterations 3
smoothSolver:  Solving for k, Initial residual = 0.0265361, Final residual = 0.00195126, No Iterations 4
ExecutionTime = 0.38 s  ClockTime = 0 s

scalarTransport execute: age
smoothSolver:  Solving for age, Initial residual = 0.0493929, Final residual = 0.00444167, No Iterations 8

Time = 28

smoothSolver:  Solving for Ux, Initial residual = 0.0373146, Final residual = 0.00235086, No Iterations 5
smoothSolver:  Solving for Uy, Initial residual = 0.0206807, Final residual = 0.00129033, No Iterations 5
GAMG:  Solving for p, Initial residual = 0.0361138, Final residual = 0.00277282, No Iterations 2
time step continuity errors : sum local = 0.00925984, global = 0.000442674, cumulative = 0.0278564
smoothSolver:  Solving for omega, Initial residual = 0.0013864, Final residual = 0.000100122, No Iterations 3
smoothSolver:  Solving for k, Initial residual = 0.0266756, Final residual = 0.00186819, No Iterations 4
ExecutionTime = 0.39 s  ClockTime = 1 s

scalarTransport execute: age
smoothSolver:  Solving for age, Initial residual = 0.0491871, Final residual = 0.00476009, No Iterations 8

Time = 29

smoothSolver:  Solving for Ux, Initial residual = 0.0372536, Final residual = 0.0023613, No Iterations 5
smoothSolver:  Solving for Uy, Initial residual = 0.0215128, Final residual = 0.00136753, No Iterations 5
GAMG:  Solving for p, Initial residual = 0.0377131, Final residual = 0.00287933, No Iterations 2
time step continuity errors : sum local = 0.00958084, global = 0.000392346, cumulative = 0.0282487
smoothSolver:  Solving for omega, Initial residual = 0.00146141, Final residual = 0.000104621, No Iterations 3
smoothSolver:  Solving for k, Initial residual = 0.0271259, Final residual = 0.00178522, No Iterations 4
ExecutionTime = 0.4 s  ClockTime = 1 s

scalarTransport execute: age
smoothSolver:  Solving for age, Initial residual = 0.0484742, Final residual = 0.00442297, No Iterations 9

Time = 30

smoothSolver:  Solving for Ux, Initial residual = 0.037007, Final residual = 0.00235254, No Iterations 5
smoothSolver:  Solving for Uy, Initial residual = 0.0222026, Final residual = 0.00143177, No Iterations 5
GAMG:  Solving for p, Initial residual = 0.0389741, Final residual = 0.00299579, No Iterations 2
time step continuity errors : sum local = 0.00996127, global = 0.000354322, cumulative = 0.0286031
smoothSolver:  Solving for omega, Initial residual = 0.00156811, Final residual = 0.000110122, No Iterations 3
smoothSolver:  Solving for k, Initial residual = 0.0273701, Final residual = 0.00171036, No Iterations 4
ExecutionTime = 0.41 s  ClockTime = 1 s

scalarTransport execute: age
smoothSolver:  Solving for age, Initial residual = 0.0491893, Final residual = 0.00477667, No Iterations 9

Time = 31

smoothSolver:  Solving for Ux, Initial residual = 0.0365723, Final residual = 0.0023269, No Iterations 5
smoothSolver:  Solving for Uy, Initial residual = 0.022803, Final residual = 0.00147436, No Iterations 5
GAMG:  Solving for p, Initial residual = 0.0383864, Final residual = 0.00323035, No Iterations 2
time step continuity errors : sum local = 0.0107436, global = 0.000327078, cumulative = 0.0289301
smoothSolver:  Solving for omega, Initial residual = 0.0017353, Final residual = 0.000115604, No Iterations 3
smoothSolver:  Solving for k, Initial residual = 0.0275038, Final residual = 0.00167926, No Iterations 4
ExecutionTime = 0.43 s  ClockTime = 1 s

scalarTransport execute: age
smoothSolver:  Solving for age, Initial residual = 0.0505122, Final residual = 0.00497643, No Iterations 9

Time = 32

smoothSolver:  Solving for Ux, Initial residual = 0.0359239, Final residual = 0.00228467, No Iterations 5
smoothSolver:  Solving for Uy, Initial residual = 0.0234097, Final residual = 0.00149104, No Iterations 5
GAMG:  Solving for p, Initial residual = 0.0393245, Final residual = 0.00370004, No Iterations 2
time step continuity errors : sum local = 0.0123745, global = 0.000318734, cumulative = 0.0292489
smoothSolver:  Solving for omega, Initial residual = 0.00180815, Final residual = 0.000119023, No Iterations 3
smoothSolver:  Solving for k, Initial residual = 0.0275457, Final residual = 0.00167676, No Iterations 4
ExecutionTime = 0.44 s  ClockTime = 1 s

scalarTransport execute: age
smoothSolver:  Solving for age, Initial residual = 0.0521995, Final residual = 0.00477482, No Iterations 10

Time = 33

smoothSolver:  Solving for Ux, Initial residual = 0.0354559, Final residual = 0.00221646, No Iterations 5
smoothSolver:  Solving for Uy, Initial residual = 0.0241554, Final residual = 0.00149597, No Iterations 5
GAMG:  Solving for p, Initial residual = 0.0409165, Final residual = 0.00180662, No Iterations 3
time step continuity errors : sum local = 0.00598386, global = 0.000346863, cumulative = 0.0295957
smoothSolver:  Solving for omega, Initial residual = 0.00172385, Final residual = 0.000119832, No Iterations 3
smoothSolver:  Solving for k, Initial residual = 0.0269592, Final residual = 0.00165097, No Iterations 4
ExecutionTime = 0.45 s  ClockTime = 1 s

scalarTransport execute: age
smoothSolver:  Solving for age, Initial residual = 0.0538226, Final residual = 0.00528005, No Iterations 10

Time = 34

smoothSolver:  Solving for Ux, Initial residual = 0.0349922, Final residual = 0.00347113, No Iterations 4
smoothSolver:  Solving for Uy, Initial residual = 0.0249812, Final residual = 0.00246232, No Iterations 4
GAMG:  Solving for p, Initial residual = 0.0404584, Final residual = 0.00385138, No Iterations 2
time step continuity errors : sum local = 0.0127111, global = 0.00036863, cumulative = 0.0299644
smoothSolver:  Solving for omega, Initial residual = 0.0017615, Final residual = 0.000118872, No Iterations 3
smoothSolver:  Solving for k, Initial residual = 0.0261538, Final residual = 0.0016005, No Iterations 4
ExecutionTime = 0.46 s  ClockTime = 1 s

scalarTransport execute: age
smoothSolver:  Solving for age, Initial residual = 0.0537678, Final residual = 0.00474528, No Iterations 11

Time = 35

smoothSolver:  Solving for Ux, Initial residual = 0.0346329, Final residual = 0.00343068, No Iterations 4
smoothSolver:  Solving for Uy, Initial residual = 0.0257232, Final residual = 0.00251443, No Iterations 4
GAMG:  Solving for p, Initial residual = 0.0446995, Final residual = 0.00180657, No Iterations 3
time step continuity errors : sum local = 0.0059501, global = 0.00034206, cumulative = 0.0303064
smoothSolver:  Solving for omega, Initial residual = 0.00181265, Final residual = 0.000120139, No Iterations 3
smoothSolver:  Solving for k, Initial residual = 0.0252121, Final residual = 0.00154009, No Iterations 4
ExecutionTime = 0.48 s  ClockTime = 1 s

scalarTransport execute: age
smoothSolver:  Solving for age, Initial residual = 0.0526388, Final residual = 0.00466229, No Iterations 11

Time = 36

smoothSolver:  Solving for Ux, Initial residual = 0.0342013, Final residual = 0.00325124, No Iterations 4
smoothSolver:  Solving for Uy, Initial residual = 0.0262224, Final residual = 0.00251152, No Iterations 4
GAMG:  Solving for p, Initial residual = 0.0443535, Final residual = 0.00443451, No Iterations 2
time step continuity errors : sum local = 0.0145633, global = 0.000362469, cumulative = 0.0306689
smoothSolver:  Solving for omega, Initial residual = 0.00175254, Final residual = 0.000121732, No Iterations 3
smoothSolver:  Solving for k, Initial residual = 0.0243677, Final residual = 0.0014725, No Iterations 4
ExecutionTime = 0.49 s  ClockTime = 1 s

scalarTransport execute: age
smoothSolver:  Solving for age, Initial residual = 0.0513762, Final residual = 0.00453273, No Iterations 11

Time = 37

smoothSolver:  Solving for Ux, Initial residual = 0.0342814, Final residual = 0.0032744, No Iterations 4
smoothSolver:  Solving for Uy, Initial residual = 0.0265498, Final residual = 0.00253292, No Iterations 4
GAMG:  Solving for p, Initial residual = 0.0482727, Final residual = 0.00187111, No Iterations 3
time step continuity errors : sum local = 0.00616662, global = 0.000318654, cumulative = 0.0309875
smoothSolver:  Solving for omega, Initial residual = 0.00185419, Final residual = 0.00012476, No Iterations 3
smoothSolver:  Solving for k, Initial residual = 0.0236342, Final residual = 0.00138669, No Iterations 4
ExecutionTime = 0.5 s  ClockTime = 1 s

scalarTransport execute: age
smoothSolver:  Solving for age, Initial residual = 0.0518822, Final residual = 0.0046125, No Iterations 11

Time = 38

smoothSolver:  Solving for Ux, Initial residual = 0.0340961, Final residual = 0.00311199, No Iterations 4
smoothSolver:  Solving for Uy, Initial residual = 0.0270307, Final residual = 0.00253518, No Iterations 4
GAMG:  Solving for p, Initial residual = 0.0473157, Final residual = 0.00195051, No Iterations 3
time step continuity errors : sum local = 0.0064212, global = 0.00032575, cumulative = 0.0313133
smoothSolver:  Solving for omega, Initial residual = 0.00185026, Final residual = 0.000125039, No Iterations 3
smoothSolver:  Solving for k, Initial residual = 0.0229783, Final residual = 0.00129884, No Iterations 4
ExecutionTime = 0.51 s  ClockTime = 1 s

scalarTransport execute: age
smoothSolver:  Solving for age, Initial residual = 0.0527642, Final residual = 0.00456891, No Iterations 11

Time = 39

smoothSolver:  Solving for Ux, Initial residual = 0.034339, Final residual = 0.00314854, No Iterations 4
smoothSolver:  Solving for Uy, Initial residual = 0.0274235, Final residual = 0.00258202, No Iterations 4
GAMG:  Solving for p, Initial residual = 0.0490284, Final residual = 0.00216852, No Iterations 3
time step continuity errors : sum local = 0.00714725, global = 0.000307435, cumulative = 0.0316207
smoothSolver:  Solving for omega, Initial residual = 0.00186502, Final residual = 0.000126238, No Iterations 3
smoothSolver:  Solving for k, Initial residual = 0.0225734, Final residual = 0.0012298, No Iterations 4
ExecutionTime = 0.53 s  ClockTime = 1 s

scalarTransport execute: age
smoothSolver:  Solving for age, Initial residual = 0.0536873, Final residual = 0.00512605, No Iterations 10

Time = 40

smoothSolver:  Solving for Ux, Initial residual = 0.0346727, Final residual = 0.00317517, No Iterations 4
smoothSolver:  Solving for Uy, Initial residual = 0.0277514, Final residual = 0.00261376, No Iterations 4
GAMG:  Solving for p, Initial residual = 0.050479, Final residual = 0.00220424, No Iterations 3
time step continuity errors : sum local = 0.00726959, global = 0.000276208, cumulative = 0.0318969
smoothSolver:  Solving for omega, Initial residual = 0.00204173, Final residual = 0.000130494, No Iterations 3
smoothSolver:  Solving for k, Initial residual = 0.0226172, Final residual = 0.00120994, No Iterations 4
ExecutionTime = 0.54 s  ClockTime = 1 s

scalarTransport execute: age
smoothSolver:  Solving for age, Initial residual = 0.0545532, Final residual = 0.00501859, No Iterations 10

Time = 41

smoothSolver:  Solving for Ux, Initial residual = 0.0347068, Final residual = 0.00320232, No Iterations 4
smoothSolver:  Solving for Uy, Initial residual = 0.0280012, Final residual = 0.00263453, No Iterations 4
GAMG:  Solving for p, Initial residual = 0.0508635, Final residual = 0.00211794, No Iterations 3
time step continuity errors : sum local = 0.00699109, global = 0.000223642, cumulative = 0.0321206
smoothSolver:  Solving for omega, Initial residual = 0.00198717, Final residual = 0.000133103, No Iterations 3
smoothSolver:  Solving for k, Initial residual = 0.0229853, Final residual = 0.00123175, No Iterations 4
ExecutionTime = 0.55 s  ClockTime = 1 s

scalarTransport execute: age
smoothSolver:  Solving for age, Initial residual = 0.0558775, Final residual = 0.00508687, No Iterations 10

Time = 42

smoothSolver:  Solving for Ux, Initial residual = 0.0343433, Final residual = 0.00322011, No Iterations 4
smoothSolver:  Solving for Uy, Initial residual = 0.027903, Final residual = 0.00263676, No Iterations 4
GAMG:  Solving for p, Initial residual = 0.0510462, Final residual = 0.00200587, No Iterations 3
time step continuity errors : sum local = 0.00662213, global = 0.000128809, cumulative = 0.0322494
smoothSolver:  Solving for omega, Initial residual = 0.00190873, Final residual = 0.000134768, No Iterations 3
smoothSolver:  Solving for k, Initial residual = 0.0234194, Final residual = 0.00127061, No Iterations 4
ExecutionTime = 0.56 s  ClockTime = 1 s

scalarTransport execute: age
smoothSolver:  Solving for age, Initial residual = 0.0576507, Final residual = 0.00526946, No Iterations 10

Time = 43

smoothSolver:  Solving for Ux, Initial residual = 0.0339693, Final residual = 0.0032264, No Iterations 4
smoothSolver:  Solving for Uy, Initial residual = 0.0275943, Final residual = 0.00260831, No Iterations 4
GAMG:  Solving for p, Initial residual = 0.0503762, Final residual = 0.00186744, No Iterations 3
time step continuity errors : sum local = 0.00617593, global = -3.5889e-05, cumulative = 0.0322135
smoothSolver:  Solving for omega, Initial residual = 0.00184444, Final residual = 0.000134753, No Iterations 3
smoothSolver:  Solving for k, Initial residual = 0.0238824, Final residual = 0.00130195, No Iterations 4
ExecutionTime = 0.58 s  ClockTime = 1 s

scalarTransport execute: age
smoothSolver:  Solving for age, Initial residual = 0.0588071, Final residual = 0.00525317, No Iterations 10

Time = 44

smoothSolver:  Solving for Ux, Initial residual = 0.033483, Final residual = 0.00324076, No Iterations 4
smoothSolver:  Solving for Uy, Initial residual = 0.0272674, Final residual = 0.00254298, No Iterations 4
GAMG:  Solving for p, Initial residual = 0.0503213, Final residual = 0.00181096, No Iterations 3
time step continuity errors : sum local = 0.00598615, global = -0.000145485, cumulative = 0.032068
smoothSolver:  Solving for omega, Initial residual = 0.0017983, Final residual = 0.000135153, No Iterations 3
smoothSolver:  Solving for k, Initial residual = 0.0241336, Final residual = 0.00131513, No Iterations 4
ExecutionTime = 0.59 s  ClockTime = 1 s

scalarTransport execute: age
smoothSolver:  Solving for age, Initial residual = 0.0590805, Final residual = 0.00586105, No Iterations 9

Time = 45

smoothSolver:  Solving for Ux, Initial residual = 0.0333096, Final residual = 0.00326783, No Iterations 4
smoothSolver:  Solving for Uy, Initial residual = 0.0268447, Final residual = 0.00245144, No Iterations 4
GAMG:  Solving for p, Initial residual = 0.0512348, Final residual = 0.00184955, No Iterations 3
time step continuity errors : sum local = 0.0061523, global = -0.000189856, cumulative = 0.0318782
smoothSolver:  Solving for omega, Initial residual = 0.00180165, Final residual = 0.000137828, No Iterations 3
smoothSolver:  Solving for k, Initial residual = 0.024334, Final residual = 0.00132056, No Iterations 4
ExecutionTime = 0.6 s  ClockTime = 1 s

scalarTransport execute: age
smoothSolver:  Solving for age, Initial residual = 0.0591627, Final residual = 0.00541486, No Iterations 9

Time = 46

smoothSolver:  Solving for Ux, Initial residual = 0.0333815, Final residual = 0.00331327, No Iterations 4
smoothSolver:  Solving for Uy, Initial residual = 0.0265278, Final residual = 0.00237809, No Iterations 4
GAMG:  Solving for p, Initial residual = 0.053011, Final residual = 0.00188809, No Iterations 3
time step continuity errors : sum local = 0.00633035, global = -0.00015993, cumulative = 0.0317182
smoothSolver:  Solving for omega, Initial residual = 0.00183566, Final residual = 0.000141701, No Iterations 3
smoothSolver:  Solving for k, Initial residual = 0.0246053, Final residual = 0.0013309, No Iterations 4
ExecutionTime = 0.61 s  ClockTime = 1 s

scalarTransport execute: age
smoothSolver:  Solving for age, Initial residual = 0.0581981, Final residual = 0.00507036, No Iterations 9

Time = 47

smoothSolver:  Solving for Ux, Initial residual = 0.033268, Final residual = 0.0020001, No Iterations 5
smoothSolver:  Solving for Uy, Initial residual = 0.0264104, Final residual = 0.00233091, No Iterations 4
GAMG:  Solving for p, Initial residual = 0.0549647, Final residual = 0.00198114, No Iterations 3
time step continuity errors : sum local = 0.00671731, global = -5.86077e-05, cumulative = 0.0316596
smoothSolver:  Solving for omega, Initial residual = 0.00193455, Final residual = 0.000146578, No Iterations 3
smoothSolver:  Solving for k, Initial residual = 0.0249977, Final residual = 0.00135945, No Iterations 4
ExecutionTime = 0.63 s  ClockTime = 1 s

scalarTransport execute: age
smoothSolver:  Solving for age, Initial residual = 0.0572971, Final residual = 0.00484366, No Iterations 9

Time = 48

smoothSolver:  Solving for Ux, Initial residual = 0.0329709, Final residual = 0.00200093, No Iterations 5
smoothSolver:  Solving for Uy, Initial residual = 0.026409, Final residual = 0.0023166, No Iterations 4
GAMG:  Solving for p, Initial residual = 0.0551063, Final residual = 0.00191447, No Iterations 3
time step continuity errors : sum local = 0.00658636, global = 9.85052e-05, cumulative = 0.0317581
smoothSolver:  Solving for omega, Initial residual = 0.00201493, Final residual = 0.00014909, No Iterations 3
smoothSolver:  Solving for k, Initial residual = 0.0253196, Final residual = 0.00140642, No Iterations 4
ExecutionTime = 0.64 s  ClockTime = 1 s

scalarTransport execute: age
smoothSolver:  Solving for age, Initial residual = 0.0564989, Final residual = 0.00560807, No Iterations 8

Time = 49

smoothSolver:  Solving for Ux, Initial residual = 0.0326855, Final residual = 0.00200695, No Iterations 5
smoothSolver:  Solving for Uy, Initial residual = 0.0262245, Final residual = 0.00230565, No Iterations 4
GAMG:  Solving for p, Initial residual = 0.0555358, Final residual = 0.00543567, No Iterations 2
time step continuity errors : sum local = 0.0189434, global = 0.000288184, cumulative = 0.0320463
smoothSolver:  Solving for omega, Initial residual = 0.00203908, Final residual = 0.000148848, No Iterations 3
smoothSolver:  Solving for k, Initial residual = 0.0254432, Final residual = 0.00145372, No Iterations 4
ExecutionTime = 0.65 s  ClockTime = 1 s

scalarTransport execute: age
smoothSolver:  Solving for age, Initial residual = 0.0570488, Final residual = 0.00479604, No Iterations 9

Time = 50

smoothSolver:  Solving for Ux, Initial residual = 0.0324606, Final residual = 0.00203116, No Iterations 5
smoothSolver:  Solving for Uy, Initial residual = 0.0254407, Final residual = 0.00222968, No Iterations 4
GAMG:  Solving for p, Initial residual = 0.058064, Final residual = 0.00227334, No Iterations 3
time step continuity errors : sum local = 0.00797946, global = 0.000676306, cumulative = 0.0327226
smoothSolver:  Solving for omega, Initial residual = 0.00218811, Final residual = 0.00014687, No Iterations 3
smoothSolver:  Solving for k, Initial residual = 0.0251217, Final residual = 0.00146832, No Iterations 4
ExecutionTime = 0.66 s  ClockTime = 1 s

scalarTransport execute: age
smoothSolver:  Solving for age, Initial residual = 0.0565921, Final residual = 0.00487239, No Iterations 9

Time = 51

smoothSolver:  Solving for Ux, Initial residual = 0.0317804, Final residual = 0.00192719, No Iterations 5
smoothSolver:  Solving for Uy, Initial residual = 0.0254318, Final residual = 0.00223925, No Iterations 4
GAMG:  Solving for p, Initial residual = 0.0557063, Final residual = 0.00476532, No Iterations 2
time step continuity errors : sum local = 0.0168717, global = 0.00107708, cumulative = 0.0337997
smoothSolver:  Solving for omega, Initial residual = 0.00209277, Final residual = 0.000143161, No Iterations 3
smoothSolver:  Solving for k, Initial residual = 0.0247046, Final residual = 0.00147396, No Iterations 4
ExecutionTime = 0.68 s  ClockTime = 1 s

scalarTransport execute: age
smoothSolver:  Solving for age, Initial residual = 0.0566331, Final residual = 0.00503249, No Iterations 9

Time = 52

smoothSolver:  Solving for Ux, Initial residual = 0.0311873, Final residual = 0.00193088, No Iterations 5
smoothSolver:  Solving for Uy, Initial residual = 0.0249173, Final residual = 0.00217745, No Iterations 4
GAMG:  Solving for p, Initial residual = 0.0577481, Final residual = 0.005363, No Iterations 2
time step continuity errors : sum local = 0.0190544, global = 0.00169735, cumulative = 0.035497
smoothSolver:  Solving for omega, Initial residual = 0.00213037, Final residual = 0.00014166, No Iterations 3
smoothSolver:  Solving for k, Initial residual = 0.0241774, Final residual = 0.0014464, No Iterations 4
ExecutionTime = 0.69 s  ClockTime = 1 s

scalarTransport execute: age
smoothSolver:  Solving for age, Initial residual = 0.0555121, Final residual = 0.00497296, No Iterations 9

Time = 53

smoothSolver:  Solving for Ux, Initial residual = 0.0303598, Final residual = 0.00187033, No Iterations 5
smoothSolver:  Solving for Uy, Initial residual = 0.0242732, Final residual = 0.00208762, No Iterations 4
GAMG:  Solving for p, Initial residual = 0.0571508, Final residual = 0.00340313, No Iterations 2
time step continuity errors : sum local = 0.012108, global = 0.0019362, cumulative = 0.0374332
smoothSolver:  Solving for omega, Initial residual = 0.00209467, Final residual = 0.000137274, No Iterations 3
smoothSolver:  Solving for k, Initial residual = 0.0231626, Final residual = 0.00137276, No Iterations 4
ExecutionTime = 0.7 s  ClockTime = 1 s

scalarTransport execute: age
smoothSolver:  Solving for age, Initial residual = 0.054091, Final residual = 0.00493827, No Iterations 9

Time = 54

smoothSolver:  Solving for Ux, Initial residual = 0.0292102, Final residual = 0.00291767, No Iterations 4
smoothSolver:  Solving for Uy, Initial residual = 0.022785, Final residual = 0.00184071, No Iterations 4
GAMG:  Solving for p, Initial residual = 0.0562293, Final residual = 0.00297022, No Iterations 2
time step continuity errors : sum local = 0.0102294, global = 0.00128645, cumulative = 0.0387197
smoothSolver:  Solving for omega, Initial residual = 0.00193428, Final residual = 0.000129626, No Iterations 3
smoothSolver:  Solving for k, Initial residual = 0.0220446, Final residual = 0.0012853, No Iterations 4
ExecutionTime = 0.71 s  ClockTime = 1 s

scalarTransport execute: age
smoothSolver:  Solving for age, Initial residual = 0.0511409, Final residual = 0.00474629, No Iterations 9

Time = 55

smoothSolver:  Solving for Ux, Initial residual = 0.0286351, Final residual = 0.00285135, No Iterations 4
smoothSolver:  Solving for Uy, Initial residual = 0.0211016, Final residual = 0.0015808, No Iterations 4
GAMG:  Solving for p, Initial residual = 0.0580015, Final residual = 0.00406167, No Iterations 2
time step continuity errors : sum local = 0.0133362, global = 0.00104843, cumulative = 0.0397681
smoothSolver:  Solving for omega, Initial residual = 0.00183268, Final residual = 0.000126242, No Iterations 3
smoothSolver:  Solving for k, Initial residual = 0.0210165, Final residual = 0.00121431, No Iterations 4
ExecutionTime = 0.72 s  ClockTime = 1 s

scalarTransport execute: age
smoothSolver:  Solving for age, Initial residual = 0.0495448, Final residual = 0.00479755, No Iterations 9

Time = 56

smoothSolver:  Solving for Ux, Initial residual = 0.0271171, Final residual = 0.00265029, No Iterations 4
smoothSolver:  Solving for Uy, Initial residual = 0.019361, Final residual = 0.00146024, No Iterations 4
GAMG:  Solving for p, Initial residual = 0.0573216, Final residual = 0.00445709, No Iterations 2
time step continuity errors : sum local = 0.0146915, global = 0.000979439, cumulative = 0.0407476
smoothSolver:  Solving for omega, Initial residual = 0.00172444, Final residual = 0.00011886, No Iterations 3
smoothSolver:  Solving for k, Initial residual = 0.02013, Final residual = 0.00116907, No Iterations 4
ExecutionTime = 0.74 s  ClockTime = 1 s

scalarTransport execute: age
smoothSolver:  Solving for age, Initial residual = 0.0481064, Final residual = 0.00475873, No Iterations 9

Time = 57

smoothSolver:  Solving for Ux, Initial residual = 0.0257381, Final residual = 0.00242723, No Iterations 4
smoothSolver:  Solving for Uy, Initial residual = 0.0183582, Final residual = 0.00135356, No Iterations 4
GAMG:  Solving for p, Initial residual = 0.0553272, Final residual = 0.00431928, No Iterations 2
time step continuity errors : sum local = 0.0142525, global = 0.000843357, cumulative = 0.0415909
smoothSolver:  Solving for omega, Initial residual = 0.00169637, Final residual = 0.000116008, No Iterations 3
smoothSolver:  Solving for k, Initial residual = 0.0196503, Final residual = 0.00114858, No Iterations 4
ExecutionTime = 0.75 s  ClockTime = 1 s

scalarTransport execute: age
smoothSolver:  Solving for age, Initial residual = 0.0460171, Final residual = 0.00457963, No Iterations 9

Time = 58

smoothSolver:  Solving for Ux, Initial residual = 0.02477, Final residual = 0.00226608, No Iterations 4
smoothSolver:  Solving for Uy, Initial residual = 0.0176451, Final residual = 0.00125425, No Iterations 4
GAMG:  Solving for p, Initial residual = 0.0528988, Final residual = 0.00426025, No Iterations 2
time step continuity errors : sum local = 0.0140722, global = 0.000625413, cumulative = 0.0422163
smoothSolver:  Solving for omega, Initial residual = 0.00167489, Final residual = 0.000113804, No Iterations 3
smoothSolver:  Solving for k, Initial residual = 0.0193759, Final residual = 0.00114864, No Iterations 4
ExecutionTime = 0.76 s  ClockTime = 1 s

scalarTransport execute: age
smoothSolver:  Solving for age, Initial residual = 0.0435122, Final residual = 0.00373787, No Iterations 10

Time = 59

smoothSolver:  Solving for Ux, Initial residual = 0.023948, Final residual = 0.0021894, No Iterations 4
smoothSolver:  Solving for Uy, Initial residual = 0.0170339, Final residual = 0.00120416, No Iterations 4
GAMG:  Solving for p, Initial residual = 0.0493569, Final residual = 0.00419555, No Iterations 2
time step continuity errors : sum local = 0.0138881, global = 0.000370832, cumulative = 0.0425872
smoothSolver:  Solving for omega, Initial residual = 0.00160265, Final residual = 0.00010949, No Iterations 3
smoothSolver:  Solving for k, Initial residual = 0.0192156, Final residual = 0.00115746, No Iterations 4
ExecutionTime = 0.77 s  ClockTime = 1 s

scalarTransport execute: age
smoothSolver:  Solving for age, Initial residual = 0.0406847, Final residual = 0.00354451, No Iterations 10

Time = 60

smoothSolver:  Solving for Ux, Initial residual = 0.0225444, Final residual = 0.00210533, No Iterations 4
smoothSolver:  Solving for Uy, Initial residual = 0.0166063, Final residual = 0.00119113, No Iterations 4
GAMG:  Solving for p, Initial residual = 0.0459751, Final residual = 0.00385546, No Iterations 2
time step continuity errors : sum local = 0.0127796, global = 3.29633e-05, cumulative = 0.0426201
smoothSolver:  Solving for omega, Initial residual = 0.00150056, Final residual = 0.000103965, No Iterations 3
smoothSolver:  Solving for k, Initial residual = 0.0192157, Final residual = 0.00116667, No Iterations 4
ExecutionTime = 0.78 s  ClockTime = 1 s

scalarTransport execute: age
smoothSolver:  Solving for age, Initial residual = 0.0386856, Final residual = 0.00342879, No Iterations 10

Time = 61

smoothSolver:  Solving for Ux, Initial residual = 0.0226145, Final residual = 0.0021669, No Iterations 4
smoothSolver:  Solving for Uy, Initial residual = 0.0163753, Final residual = 0.00119449, No Iterations 4
GAMG:  Solving for p, Initial residual = 0.043291, Final residual = 0.00361307, No Iterations 2
time step continuity errors : sum local = 0.0119861, global = -0.000372339, cumulative = 0.0422478
smoothSolver:  Solving for omega, Initial residual = 0.00146078, Final residual = 0.000100311, No Iterations 3
smoothSolver:  Solving for k, Initial residual = 0.0191493, Final residual = 0.00116306, No Iterations 4
ExecutionTime = 0.8 s  ClockTime = 1 s

scalarTransport execute: age
smoothSolver:  Solving for age, Initial residual = 0.0374345, Final residual = 0.00328232, No Iterations 10

Time = 62

smoothSolver:  Solving for Ux, Initial residual = 0.0223011, Final residual = 0.00216623, No Iterations 4
smoothSolver:  Solving for Uy, Initial residual = 0.0162637, Final residual = 0.00119919, No Iterations 4
GAMG:  Solving for p, Initial residual = 0.0420079, Final residual = 0.00341546, No Iterations 2
time step continuity errors : sum local = 0.0113496, global = -0.0008167, cumulative = 0.0414311
smoothSolver:  Solving for omega, Initial residual = 0.00141936, Final residual = 9.68628e-05, No Iterations 3
smoothSolver:  Solving for k, Initial residual = 0.018984, Final residual = 0.00114296, No Iterations 4
ExecutionTime = 0.81 s  ClockTime = 1 s

scalarTransport execute: age
smoothSolver:  Solving for age, Initial residual = 0.0368654, Final residual = 0.00363428, No Iterations 9

Time = 63

smoothSolver:  Solving for Ux, Initial residual = 0.02205, Final residual = 0.00214388, No Iterations 4
smoothSolver:  Solving for Uy, Initial residual = 0.0160889, Final residual = 0.00120061, No Iterations 4
GAMG:  Solving for p, Initial residual = 0.0418829, Final residual = 0.00260065, No Iterations 2
time step continuity errors : sum local = 0.00866004, global = -0.00102237, cumulative = 0.0404087
smoothSolver:  Solving for omega, Initial residual = 0.00142931, Final residual = 9.67226e-05, No Iterations 3
smoothSolver:  Solving for k, Initial residual = 0.0188891, Final residual = 0.00111851, No Iterations 4
ExecutionTime = 0.82 s  ClockTime = 1 s

scalarTransport execute: age
smoothSolver:  Solving for age, Initial residual = 0.0364289, Final residual = 0.00336492, No Iterations 9

Time = 64

smoothSolver:  Solving for Ux, Initial residual = 0.0218602, Final residual = 0.0020772, No Iterations 4
smoothSolver:  Solving for Uy, Initial residual = 0.0159761, Final residual = 0.00120374, No Iterations 4
GAMG:  Solving for p, Initial residual = 0.0405646, Final residual = 0.00214179, No Iterations 2
time step continuity errors : sum local = 0.00723802, global = -0.000907101, cumulative = 0.0395016
smoothSolver:  Solving for omega, Initial residual = 0.00138529, Final residual = 9.77612e-05, No Iterations 3
smoothSolver:  Solving for k, Initial residual = 0.0188496, Final residual = 0.00110167, No Iterations 4
ExecutionTime = 0.83 s  ClockTime = 1 s

scalarTransport execute: age
smoothSolver:  Solving for age, Initial residual = 0.0359021, Final residual = 0.00328011, No Iterations 9

Time = 65

smoothSolver:  Solving for Ux, Initial residual = 0.0217927, Final residual = 0.00207523, No Iterations 4
smoothSolver:  Solving for Uy, Initial residual = 0.015709, Final residual = 0.00120898, No Iterations 4
GAMG:  Solving for p, Initial residual = 0.0395031, Final residual = 0.00285723, No Iterations 2
time step continuity errors : sum local = 0.0097721, global = -0.000763534, cumulative = 0.0387381
smoothSolver:  Solving for omega, Initial residual = 0.00130235, Final residual = 9.6762e-05, No Iterations 3
smoothSolver:  Solving for k, Initial residual = 0.0190825, Final residual = 0.00109923, No Iterations 4
ExecutionTime = 0.85 s  ClockTime = 1 s

scalarTransport execute: age
smoothSolver:  Solving for age, Initial residual = 0.0359556, Final residual = 0.00338967, No Iterations 9

Time = 66

smoothSolver:  Solving for Ux, Initial residual = 0.0216196, Final residual = 0.00208056, No Iterations 4
smoothSolver:  Solving for Uy, Initial residual = 0.0154967, Final residual = 0.00124278, No Iterations 4
GAMG:  Solving for p, Initial residual = 0.0391129, Final residual = 0.00333111, No Iterations 2
time step continuity errors : sum local = 0.0114318, global = -0.000654247, cumulative = 0.0380838
smoothSolver:  Solving for omega, Initial residual = 0.00127162, Final residual = 9.4055e-05, No Iterations 3
smoothSolver:  Solving for k, Initial residual = 0.019196, Final residual = 0.00110562, No Iterations 4
ExecutionTime = 0.86 s  ClockTime = 1 s

scalarTransport execute: age
smoothSolver:  Solving for age, Initial residual = 0.0360214, Final residual = 0.00350671, No Iterations 9

Time = 67

smoothSolver:  Solving for Ux, Initial residual = 0.0215283, Final residual = 0.00209143, No Iterations 4
smoothSolver:  Solving for Uy, Initial residual = 0.0155365, Final residual = 0.00129931, No Iterations 4
GAMG:  Solving for p, Initial residual = 0.0383287, Final residual = 0.00335297, No Iterations 2
time step continuity errors : sum local = 0.011519, global = -0.000499748, cumulative = 0.0375841
smoothSolver:  Solving for omega, Initial residual = 0.00130565, Final residual = 9.2725e-05, No Iterations 3
smoothSolver:  Solving for k, Initial residual = 0.0191613, Final residual = 0.00111253, No Iterations 4
ExecutionTime = 0.87 s  ClockTime = 1 s

scalarTransport execute: age
smoothSolver:  Solving for age, Initial residual = 0.0358057, Final residual = 0.00352172, No Iterations 9

Time = 68

smoothSolver:  Solving for Ux, Initial residual = 0.0216827, Final residual = 0.00212738, No Iterations 4
smoothSolver:  Solving for Uy, Initial residual = 0.0158442, Final residual = 0.00134869, No Iterations 4
GAMG:  Solving for p, Initial residual = 0.038004, Final residual = 0.00322901, No Iterations 2
time step continuity errors : sum local = 0.0110685, global = -0.000259924, cumulative = 0.0373242
smoothSolver:  Solving for omega, Initial residual = 0.00130505, Final residual = 9.27561e-05, No Iterations 3
smoothSolver:  Solving for k, Initial residual = 0.0189919, Final residual = 0.00111213, No Iterations 4
ExecutionTime = 0.88 s  ClockTime = 1 s

scalarTransport execute: age
smoothSolver:  Solving for age, Initial residual = 0.0351914, Final residual = 0.00337049, No Iterations 9

Time = 69

smoothSolver:  Solving for Ux, Initial residual = 0.02188, Final residual = 0.00217598, No Iterations 4
smoothSolver:  Solving for Uy, Initial residual = 0.0161284, Final residual = 0.00137971, No Iterations 4
GAMG:  Solving for p, Initial residual = 0.037892, Final residual = 0.00334503, No Iterations 2
time step continuity errors : sum local = 0.011438, global = 3.82727e-05, cumulative = 0.0373624
smoothSolver:  Solving for omega, Initial residual = 0.00132937, Final residual = 9.32479e-05, No Iterations 3
smoothSolver:  Solving for k, Initial residual = 0.0189099, Final residual = 0.0011135, No Iterations 4
ExecutionTime = 0.89 s  ClockTime = 1 s

scalarTransport execute: age
smoothSolver:  Solving for age, Initial residual = 0.0346008, Final residual = 0.00305632, No Iterations 9

Time = 70

smoothSolver:  Solving for Ux, Initial residual = 0.0223172, Final residual = 0.00134545, No Iterations 5
smoothSolver:  Solving for Uy, Initial residual = 0.0163346, Final residual = 0.00139092, No Iterations 4
GAMG:  Solving for p, Initial residual = 0.0389007, Final residual = 0.00355002, No Iterations 2
time step continuity errors : sum local = 0.0121192, global = 0.000353192, cumulative = 0.0377156
smoothSolver:  Solving for omega, Initial residual = 0.00133362, Final residual = 9.4854e-05, No Iterations 3
smoothSolver:  Solving for k, Initial residual = 0.0188859, Final residual = 0.00112587, No Iterations 4
ExecutionTime = 0.91 s  ClockTime = 1 s

scalarTransport execute: age
smoothSolver:  Solving for age, Initial residual = 0.0346127, Final residual = 0.00297047, No Iterations 9

Time = 71

smoothSolver:  Solving for Ux, Initial residual = 0.0222461, Final residual = 0.00222078, No Iterations 4
smoothSolver:  Solving for Uy, Initial residual = 0.0165937, Final residual = 0.00139659, No Iterations 4
GAMG:  Solving for p, Initial residual = 0.0393115, Final residual = 0.00279632, No Iterations 2
time step continuity errors : sum local = 0.00953763, global = 0.000508829, cumulative = 0.0382245
smoothSolver:  Solving for omega, Initial residual = 0.00132252, Final residual = 9.60823e-05, No Iterations 3
smoothSolver:  Solving for k, Initial residual = 0.0185713, Final residual = 0.00112642, No Iterations 4
ExecutionTime = 0.92 s  ClockTime = 1 s

scalarTransport execute: age
smoothSolver:  Solving for age, Initial residual = 0.0344531, Final residual = 0.00304356, No Iterations 9

Time = 72

smoothSolver:  Solving for Ux, Initial residual = 0.022463, Final residual = 0.00223504, No Iterations 4
smoothSolver:  Solving for Uy, Initial residual = 0.0165738, Final residual = 0.0013737, No Iterations 4
GAMG:  Solving for p, Initial residual = 0.0399774, Final residual = 0.00267284, No Iterations 2
time step continuity errors : sum local = 0.00904934, global = 0.000458557, cumulative = 0.038683
smoothSolver:  Solving for omega, Initial residual = 0.00128594, Final residual = 9.88473e-05, No Iterations 3
smoothSolver:  Solving for k, Initial residual = 0.0182431, Final residual = 0.00112194, No Iterations 4
ExecutionTime = 0.93 s  ClockTime = 1 s

scalarTransport execute: age
smoothSolver:  Solving for age, Initial residual = 0.034086, Final residual = 0.00306752, No Iterations 9

Time = 73

smoothSolver:  Solving for Ux, Initial residual = 0.0224458, Final residual = 0.00223243, No Iterations 4
smoothSolver:  Solving for Uy, Initial residual = 0.0164141, Final residual = 0.00136656, No Iterations 4
GAMG:  Solving for p, Initial residual = 0.0398693, Final residual = 0.00312151, No Iterations 2
time step continuity errors : sum local = 0.0105, global = 0.000364825, cumulative = 0.0390478
smoothSolver:  Solving for omega, Initial residual = 0.00126673, Final residual = 0.000101174, No Iterations 3
smoothSolver:  Solving for k, Initial residual = 0.018017, Final residual = 0.00111874, No Iterations 4
ExecutionTime = 0.94 s  ClockTime = 1 s

scalarTransport execute: age
smoothSolver:  Solving for age, Initial residual = 0.0341266, Final residual = 0.00315563, No Iterations 9

Time = 74

smoothSolver:  Solving for Ux, Initial residual = 0.0223168, Final residual = 0.00222906, No Iterations 4
smoothSolver:  Solving for Uy, Initial residual = 0.0162088, Final residual = 0.00137502, No Iterations 4
GAMG:  Solving for p, Initial residual = 0.0393645, Final residual = 0.00341525, No Iterations 2
time step continuity errors : sum local = 0.0114544, global = 0.000239602, cumulative = 0.0392874
smoothSolver:  Solving for omega, Initial residual = 0.00126923, Final residual = 0.000102201, No Iterations 3
smoothSolver:  Solving for k, Initial residual = 0.0178646, Final residual = 0.00111376, No Iterations 4
ExecutionTime = 0.95 s  ClockTime = 1 s

scalarTransport execute: age
smoothSolver:  Solving for age, Initial residual = 0.0342944, Final residual = 0.00332617, No Iterations 9

Time = 75

smoothSolver:  Solving for Ux, Initial residual = 0.0222546, Final residual = 0.00136313, No Iterations 5
smoothSolver:  Solving for Uy, Initial residual = 0.0160767, Final residual = 0.0013905, No Iterations 4
GAMG:  Solving for p, Initial residual = 0.0386919, Final residual = 0.00344456, No Iterations 2
time step continuity errors : sum local = 0.0115086, global = 2.80585e-05, cumulative = 0.0393155
smoothSolver:  Solving for omega, Initial residual = 0.00129218, Final residual = 0.000104363, No Iterations 3
smoothSolver:  Solving for k, Initial residual = 0.0178248, Final residual = 0.00110948, No Iterations 4
ExecutionTime = 0.97 s  ClockTime = 1 s

scalarTransport execute: age
smoothSolver:  Solving for age, Initial residual = 0.0348333, Final residual = 0.00346082, No Iterations 9

Time = 76

smoothSolver:  Solving for Ux, Initial residual = 0.0219795, Final residual = 0.0013773, No Iterations 5
smoothSolver:  Solving for Uy, Initial residual = 0.016019, Final residual = 0.00141993, No Iterations 4
GAMG:  Solving for p, Initial residual = 0.0370935, Final residual = 0.00317612, No Iterations 2
time step continuity errors : sum local = 0.010561, global = -0.000260753, cumulative = 0.0390547
smoothSolver:  Solving for omega, Initial residual = 0.00133886, Final residual = 0.000106589, No Iterations 3
smoothSolver:  Solving for k, Initial residual = 0.0177465, Final residual = 0.00110538, No Iterations 4
ExecutionTime = 0.98 s  ClockTime = 1 s

scalarTransport execute: age
smoothSolver:  Solving for age, Initial residual = 0.0344842, Final residual = 0.00297783, No Iterations 10

Time = 77

smoothSolver:  Solving for Ux, Initial residual = 0.0217933, Final residual = 0.0013971, No Iterations 5
smoothSolver:  Solving for Uy, Initial residual = 0.0159552, Final residual = 0.00143776, No Iterations 4
GAMG:  Solving for p, Initial residual = 0.0360052, Final residual = 0.00299764, No Iterations 2
time step continuity errors : sum local = 0.00992533, global = -0.000586393, cumulative = 0.0384683
smoothSolver:  Solving for omega, Initial residual = 0.00134338, Final residual = 0.000106737, No Iterations 3
smoothSolver:  Solving for k, Initial residual = 0.0177701, Final residual = 0.00110237, No Iterations 4
ExecutionTime = 0.99 s  ClockTime = 1 s

scalarTransport execute: age
smoothSolver:  Solving for age, Initial residual = 0.0340592, Final residual = 0.00293245, No Iterations 10

Time = 78

smoothSolver:  Solving for Ux, Initial residual = 0.0215973, Final residual = 0.00140205, No Iterations 5
smoothSolver:  Solving for Uy, Initial residual = 0.0158675, Final residual = 0.00143512, No Iterations 4
GAMG:  Solving for p, Initial residual = 0.0356552, Final residual = 0.00300596, No Iterations 2
time step continuity errors : sum local = 0.00991692, global = -0.000921399, cumulative = 0.037547
smoothSolver:  Solving for omega, Initial residual = 0.00135318, Final residual = 0.000105588, No Iterations 3
smoothSolver:  Solving for k, Initial residual = 0.0177918, Final residual = 0.00110809, No Iterations 4
ExecutionTime = 1 s  ClockTime = 1 s

scalarTransport execute: age
smoothSolver:  Solving for age, Initial residual = 0.0341365, Final residual = 0.00339963, No Iterations 9

Time = 79

smoothSolver:  Solving for Ux, Initial residual = 0.0213014, Final residual = 0.00138258, No Iterations 5
smoothSolver:  Solving for Uy, Initial residual = 0.0156882, Final residual = 0.00142232, No Iterations 4
GAMG:  Solving for p, Initial residual = 0.0354847, Final residual = 0.00218101, No Iterations 2
time step continuity errors : sum local = 0.00718025, global = -0.000983515, cumulative = 0.0365634
smoothSolver:  Solving for omega, Initial residual = 0.00139435, Final residual = 0.00010612, No Iterations 3
smoothSolver:  Solving for k, Initial residual = 0.0177863, Final residual = 0.00112838, No Iterations 4
ExecutionTime = 1.01 s  ClockTime = 1 s

scalarTransport execute: age
smoothSolver:  Solving for age, Initial residual = 0.0337927, Final residual = 0.0033022, No Iterations 9

Time = 80

smoothSolver:  Solving for Ux, Initial residual = 0.020949, Final residual = 0.00131858, No Iterations 5
smoothSolver:  Solving for Uy, Initial residual = 0.0155481, Final residual = 0.00141496, No Iterations 4
GAMG:  Solving for p, Initial residual = 0.0340113, Final residual = 0.00192806, No Iterations 2
time step continuity errors : sum local = 0.00643166, global = -0.000820333, cumulative = 0.0357431
smoothSolver:  Solving for omega, Initial residual = 0.0013907, Final residual = 0.000109256, No Iterations 3
smoothSolver:  Solving for k, Initial residual = 0.0178889, Final residual = 0.00115163, No Iterations 4
ExecutionTime = 1.03 s  ClockTime = 1 s

scalarTransport execute: age
smoothSolver:  Solving for age, Initial residual = 0.0329986, Final residual = 0.00327147, No Iterations 9

Time = 81

smoothSolver:  Solving for Ux, Initial residual = 0.0207044, Final residual = 0.00130327, No Iterations 5
smoothSolver:  Solving for Uy, Initial residual = 0.015333, Final residual = 0.00140391, No Iterations 4
GAMG:  Solving for p, Initial residual = 0.0333004, Final residual = 0.00271028, No Iterations 2
time step continuity errors : sum local = 0.00914135, global = -0.000654669, cumulative = 0.0350884
smoothSolver:  Solving for omega, Initial residual = 0.00136543, Final residual = 0.000110739, No Iterations 3
smoothSolver:  Solving for k, Initial residual = 0.0180369, Final residual = 0.00116783, No Iterations 4
ExecutionTime = 1.04 s  ClockTime = 1 s

scalarTransport execute: age
smoothSolver:  Solving for age, Initial residual = 0.0322139, Final residual = 0.00278764, No Iterations 10

Time = 82

smoothSolver:  Solving for Ux, Initial residual = 0.0205376, Final residual = 0.0013032, No Iterations 5
smoothSolver:  Solving for Uy, Initial residual = 0.015278, Final residual = 0.00143068, No Iterations 4
GAMG:  Solving for p, Initial residual = 0.0336794, Final residual = 0.00324926, No Iterations 2
time step continuity errors : sum local = 0.0110138, global = -0.000455135, cumulative = 0.0346333
smoothSolver:  Solving for omega, Initial residual = 0.00135033, Final residual = 0.000111614, No Iterations 3
smoothSolver:  Solving for k, Initial residual = 0.0180178, Final residual = 0.00116818, No Iterations 4
ExecutionTime = 1.05 s  ClockTime = 1 s

scalarTransport execute: age
smoothSolver:  Solving for age, Initial residual = 0.0320443, Final residual = 0.0029109, No Iterations 10

Time = 83

smoothSolver:  Solving for Ux, Initial residual = 0.0203938, Final residual = 0.00130146, No Iterations 5
smoothSolver:  Solving for Uy, Initial residual = 0.0153657, Final residual = 0.00145704, No Iterations 4
GAMG:  Solving for p, Initial residual = 0.0334878, Final residual = 0.0033473, No Iterations 2
time step continuity errors : sum local = 0.0113926, global = -0.000198574, cumulative = 0.0344347
smoothSolver:  Solving for omega, Initial residual = 0.00136055, Final residual = 0.000113435, No Iterations 3
smoothSolver:  Solving for k, Initial residual = 0.0178068, Final residual = 0.00115472, No Iterations 4
ExecutionTime = 1.06 s  ClockTime = 1 s

scalarTransport execute: age
smoothSolver:  Solving for age, Initial residual = 0.0326375, Final residual = 0.00290805, No Iterations 10

Time = 84

smoothSolver:  Solving for Ux, Initial residual = 0.0164428, Final residual = 0.000993146, No Iterations 4
smoothSolver:  Solving for Uy, Initial residual = 0.0168608, Final residual = 0.00147512, No Iterations 4
GAMG:  Solving for p, Initial residual = 0.0324476, Final residual = 0.00304037, No Iterations 2
time step continuity errors : sum local = 0.0103816, global = 0.00013695, cumulative = 0.0345717
smoothSolver:  Solving for omega, Initial residual = 0.00117023, Final residual = 9.60139e-05, No Iterations 3
smoothSolver:  Solving for k, Initial residual = 0.0173079, Final residual = 0.00113706, No Iterations 4
ExecutionTime = 1.07 s  ClockTime = 1 s

scalarTransport execute: age
smoothSolver:  Solving for age, Initial residual = 0.0331007, Final residual = 0.00281921, No Iterations 10

Time = 85

smoothSolver:  Solving for Ux, Initial residual = 0.0207358, Final residual = 0.00137933, No Iterations 5
smoothSolver:  Solving for Uy, Initial residual = 0.0154599, Final residual = 0.00148614, No Iterations 4
GAMG:  Solving for p, Initial residual = 0.0323479, Final residual = 0.00302117, No Iterations 2
time step continuity errors : sum local = 0.0103509, global = 0.000514057, cumulative = 0.0350857
smoothSolver:  Solving for omega, Initial residual = 0.00142132, Final residual = 0.000115667, No Iterations 3
smoothSolver:  Solving for k, Initial residual = 0.0167206, Final residual = 0.001119, No Iterations 4
ExecutionTime = 1.09 s  ClockTime = 1 s

scalarTransport execute: age
smoothSolver:  Solving for age, Initial residual = 0.0331109, Final residual = 0.00277235, No Iterations 10

Time = 86

smoothSolver:  Solving for Ux, Initial residual = 0.0209169, Final residual = 0.00140894, No Iterations 5
smoothSolver:  Solving for Uy, Initial residual = 0.0154111, Final residual = 0.00148125, No Iterations 4
GAMG:  Solving for p, Initial residual = 0.0319611, Final residual = 0.00280281, No Iterations 2
time step continuity errors : sum local = 0.00960859, global = 0.000906195, cumulative = 0.0359919
smoothSolver:  Solving for omega, Initial residual = 0.00139824, Final residual = 0.000115122, No Iterations 3
smoothSolver:  Solving for k, Initial residual = 0.0161324, Final residual = 0.00110939, No Iterations 4
ExecutionTime = 1.1 s  ClockTime = 1 s

scalarTransport execute: age
smoothSolver:  Solving for age, Initial residual = 0.0324765, Final residual = 0.00271954, No Iterations 10

Time = 87

smoothSolver:  Solving for Ux, Initial residual = 0.0208977, Final residual = 0.00142403, No Iterations 5
smoothSolver:  Solving for Uy, Initial residual = 0.0151599, Final residual = 0.00145359, No Iterations 4
GAMG:  Solving for p, Initial residual = 0.0321705, Final residual = 0.00200562, No Iterations 2
time step continuity errors : sum local = 0.00686066, global = 0.000995768, cumulative = 0.0369877
smoothSolver:  Solving for omega, Initial residual = 0.00134477, Final residual = 0.000112317, No Iterations 3
smoothSolver:  Solving for k, Initial residual = 0.0155346, Final residual = 0.00110775, No Iterations 4
ExecutionTime = 1.11 s  ClockTime = 1 s

scalarTransport execute: age
smoothSolver:  Solving for age, Initial residual = 0.0307015, Final residual = 0.00262051, No Iterations 10

Time = 88

smoothSolver:  Solving for Ux, Initial residual = 0.0207071, Final residual = 0.00141012, No Iterations 5
smoothSolver:  Solving for Uy, Initial residual = 0.0145341, Final residual = 0.00132604, No Iterations 4
GAMG:  Solving for p, Initial residual = 0.033011, Final residual = 0.0016919, No Iterations 2
time step continuity errors : sum local = 0.00568103, global = 0.00080218, cumulative = 0.0377899
smoothSolver:  Solving for omega, Initial residual = 0.00126703, Final residual = 0.000110163, No Iterations 3
smoothSolver:  Solving for k, Initial residual = 0.0150139, Final residual = 0.00109624, No Iterations 4
ExecutionTime = 1.13 s  ClockTime = 1 s

scalarTransport execute: age
smoothSolver:  Solving for age, Initial residual = 0.0287301, Final residual = 0.00253425, No Iterations 10

Time = 89

smoothSolver:  Solving for Ux, Initial residual = 0.0200708, Final residual = 0.00137146, No Iterations 5
smoothSolver:  Solving for Uy, Initial residual = 0.0137164, Final residual = 0.00121457, No Iterations 4
GAMG:  Solving for p, Initial residual = 0.033474, Final residual = 0.00232477, No Iterations 2
time step continuity errors : sum local = 0.00768685, global = 0.000599044, cumulative = 0.0383889
smoothSolver:  Solving for omega, Initial residual = 0.00119338, Final residual = 0.000107189, No Iterations 3
smoothSolver:  Solving for k, Initial residual = 0.0144939, Final residual = 0.00106626, No Iterations 4
ExecutionTime = 1.14 s  ClockTime = 1 s

scalarTransport execute: age
smoothSolver:  Solving for age, Initial residual = 0.0269812, Final residual = 0.00241772, No Iterations 10

Time = 90

smoothSolver:  Solving for Ux, Initial residual = 0.0192519, Final residual = 0.00129422, No Iterations 5
smoothSolver:  Solving for Uy, Initial residual = 0.0129091, Final residual = 0.00113306, No Iterations 4
GAMG:  Solving for p, Initial residual = 0.0336961, Final residual = 0.00273473, No Iterations 2
time step continuity errors : sum local = 0.00897202, global = 0.000378702, cumulative = 0.0387676
smoothSolver:  Solving for omega, Initial residual = 0.00114566, Final residual = 0.000103576, No Iterations 3
smoothSolver:  Solving for k, Initial residual = 0.0138978, Final residual = 0.00101705, No Iterations 4
ExecutionTime = 1.15 s  ClockTime = 1 s

scalarTransport execute: age
smoothSolver:  Solving for age, Initial residual = 0.0255777, Final residual = 0.00230962, No Iterations 10

Time = 91

smoothSolver:  Solving for Ux, Initial residual = 0.0184642, Final residual = 0.0012066, No Iterations 5
smoothSolver:  Solving for Uy, Initial residual = 0.0123405, Final residual = 0.00109213, No Iterations 4
GAMG:  Solving for p, Initial residual = 0.0331412, Final residual = 0.00292438, No Iterations 2
time step continuity errors : sum local = 0.00952982, global = 0.000132589, cumulative = 0.0389002
smoothSolver:  Solving for omega, Initial residual = 0.00112882, Final residual = 9.98345e-05, No Iterations 3
smoothSolver:  Solving for k, Initial residual = 0.0132784, Final residual = 0.000962335, No Iterations 4
ExecutionTime = 1.16 s  ClockTime = 1 s

scalarTransport execute: age
smoothSolver:  Solving for age, Initial residual = 0.0247526, Final residual = 0.00223871, No Iterations 10

Time = 92

smoothSolver:  Solving for Ux, Initial residual = 0.0177372, Final residual = 0.0011402, No Iterations 5
smoothSolver:  Solving for Uy, Initial residual = 0.0120513, Final residual = 0.00109399, No Iterations 4
GAMG:  Solving for p, Initial residual = 0.0319271, Final residual = 0.00274785, No Iterations 2
time step continuity errors : sum local = 0.00890529, global = -0.000168525, cumulative = 0.0387317
smoothSolver:  Solving for omega, Initial residual = 0.00110552, Final residual = 9.58063e-05, No Iterations 3
smoothSolver:  Solving for k, Initial residual = 0.0126882, Final residual = 0.000901641, No Iterations 4
ExecutionTime = 1.18 s  ClockTime = 1 s

scalarTransport execute: age
smoothSolver:  Solving for age, Initial residual = 0.0246719, Final residual = 0.00224937, No Iterations 10

Time = 93

smoothSolver:  Solving for Ux, Initial residual = 0.0171563, Final residual = 0.00110659, No Iterations 5
smoothSolver:  Solving for Uy, Initial residual = 0.0119884, Final residual = 0.00112054, No Iterations 4
GAMG:  Solving for p, Initial residual = 0.030562, Final residual = 0.00243886, No Iterations 2
time step continuity errors : sum local = 0.00784991, global = -0.000518782, cumulative = 0.0382129
smoothSolver:  Solving for omega, Initial residual = 0.00109795, Final residual = 9.32545e-05, No Iterations 3
smoothSolver:  Solving for k, Initial residual = 0.0122012, Final residual = 0.000840572, No Iterations 4
ExecutionTime = 1.19 s  ClockTime = 1 s

scalarTransport execute: age
smoothSolver:  Solving for age, Initial residual = 0.0248626, Final residual = 0.00232769, No Iterations 10

Time = 94

smoothSolver:  Solving for Ux, Initial residual = 0.0166925, Final residual = 0.00110065, No Iterations 5
smoothSolver:  Solving for Uy, Initial residual = 0.0120319, Final residual = 0.00114099, No Iterations 4
GAMG:  Solving for p, Initial residual = 0.0299832, Final residual = 0.00223252, No Iterations 2
time step continuity errors : sum local = 0.00713385, global = -0.000907421, cumulative = 0.0373055
smoothSolver:  Solving for omega, Initial residual = 0.00111788, Final residual = 9.06317e-05, No Iterations 3
smoothSolver:  Solving for k, Initial residual = 0.0118253, Final residual = 0.00078714, No Iterations 4
ExecutionTime = 1.2 s  ClockTime = 1 s

scalarTransport execute: age
smoothSolver:  Solving for age, Initial residual = 0.0249326, Final residual = 0.00234117, No Iterations 10

Time = 95

smoothSolver:  Solving for Ux, Initial residual = 0.0163527, Final residual = 0.00109337, No Iterations 5
smoothSolver:  Solving for Uy, Initial residual = 0.0119944, Final residual = 0.00113169, No Iterations 4
GAMG:  Solving for p, Initial residual = 0.0300773, Final residual = 0.00179605, No Iterations 2
time step continuity errors : sum local = 0.00571161, global = -0.00102213, cumulative = 0.0362834
smoothSolver:  Solving for omega, Initial residual = 0.00111192, Final residual = 8.66196e-05, No Iterations 3
smoothSolver:  Solving for k, Initial residual = 0.0115318, Final residual = 0.000755832, No Iterations 4
ExecutionTime = 1.22 s  ClockTime = 1 s

scalarTransport execute: age
smoothSolver:  Solving for age, Initial residual = 0.024279, Final residual = 0.00223718, No Iterations 10

Time = 96

smoothSolver:  Solving for Ux, Initial residual = 0.0159693, Final residual = 0.00104443, No Iterations 5
smoothSolver:  Solving for Uy, Initial residual = 0.0117878, Final residual = 0.00104894, No Iterations 4
GAMG:  Solving for p, Initial residual = 0.0291606, Final residual = 0.00148658, No Iterations 2
time step continuity errors : sum local = 0.00478114, global = -0.000962916, cumulative = 0.0353204
smoothSolver:  Solving for omega, Initial residual = 0.001059, Final residual = 8.22065e-05, No Iterations 3
smoothSolver:  Solving for k, Initial residual = 0.0111797, Final residual = 0.000748838, No Iterations 4
[...]

Time = 464

smoothSolver:  Solving for Ux, Initial residual = 7.08094e-07, Final residual = 4.79976e-08, No Iterations 5
smoothSolver:  Solving for Uy, Initial residual = 5.19703e-07, Final residual = 4.78219e-08, No Iterations 4
GAMG:  Solving for p, Initial residual = 1.81556e-06, Final residual = 1.54351e-07, No Iterations 2
time step continuity errors : sum local = 4.68372e-07, global = 1.20851e-08, cumulative = 0.03351
smoothSolver:  Solving for omega, Initial residual = 4.79655e-08, Final residual = 6.68433e-09, No Iterations 2
smoothSolver:  Solving for k, Initial residual = 5.82937e-07, Final residual = 4.40994e-08, No Iterations 4
ExecutionTime = 5.72 s  ClockTime = 6 s

scalarTransport execute: age
smoothSolver:  Solving for age, Initial residual = 0.000362822, Final residual = 3.14034e-05, No Iterations 14

Time = 465

smoothSolver:  Solving for Ux, Initial residual = 7.01082e-07, Final residual = 4.6837e-08, No Iterations 5
smoothSolver:  Solving for Uy, Initial residual = 5.21279e-07, Final residual = 4.80879e-08, No Iterations 4
GAMG:  Solving for p, Initial residual = 1.68737e-06, Final residual = 1.45054e-07, No Iterations 2
time step continuity errors : sum local = 4.40162e-07, global = 1.16585e-08, cumulative = 0.03351
smoothSolver:  Solving for omega, Initial residual = 4.9762e-08, Final residual = 6.69685e-09, No Iterations 2
smoothSolver:  Solving for k, Initial residual = 5.79046e-07, Final residual = 4.36436e-08, No Iterations 4
ExecutionTime = 5.74 s  ClockTime = 6 s

scalarTransport execute: age
smoothSolver:  Solving for age, Initial residual = 0.000361759, Final residual = 3.61338e-05, No Iterations 13

Time = 466

smoothSolver:  Solving for Ux, Initial residual = 6.82318e-07, Final residual = 4.59192e-08, No Iterations 5
smoothSolver:  Solving for Uy, Initial residual = 5.17238e-07, Final residual = 4.82638e-08, No Iterations 4
GAMG:  Solving for p, Initial residual = 1.69774e-06, Final residual = 1.49007e-07, No Iterations 2
time step continuity errors : sum local = 4.52155e-07, global = 8.12251e-09, cumulative = 0.03351
smoothSolver:  Solving for omega, Initial residual = 5.28642e-08, Final residual = 6.8097e-09, No Iterations 2
smoothSolver:  Solving for k, Initial residual = 5.7688e-07, Final residual = 4.32811e-08, No Iterations 4
ExecutionTime = 5.75 s  ClockTime = 6 s

scalarTransport execute: age
smoothSolver:  Solving for age, Initial residual = 0.00036076, Final residual = 3.12813e-05, No Iterations 14

Time = 467

smoothSolver:  Solving for Ux, Initial residual = 6.64435e-07, Final residual = 4.48957e-08, No Iterations 5
smoothSolver:  Solving for Uy, Initial residual = 5.05874e-07, Final residual = 4.73325e-08, No Iterations 4
GAMG:  Solving for p, Initial residual = 1.55293e-06, Final residual = 1.42531e-07, No Iterations 2
time step continuity errors : sum local = 4.32504e-07, global = 1.97499e-09, cumulative = 0.03351
smoothSolver:  Solving for omega, Initial residual = 4.8053e-08, Final residual = 6.82156e-09, No Iterations 2
smoothSolver:  Solving for k, Initial residual = 5.72555e-07, Final residual = 4.29147e-08, No Iterations 4
ExecutionTime = 5.76 s  ClockTime = 6 s

scalarTransport execute: age
smoothSolver:  Solving for age, Initial residual = 0.000359732, Final residual = 3.1119e-05, No Iterations 14

Time = 468

smoothSolver:  Solving for Ux, Initial residual = 6.77865e-07, Final residual = 4.37422e-08, No Iterations 5
smoothSolver:  Solving for Uy, Initial residual = 5.16512e-07, Final residual = 4.6072e-08, No Iterations 4
GAMG:  Solving for p, Initial residual = 2.0202e-06, Final residual = 1.8317e-07, No Iterations 2
time step continuity errors : sum local = 5.55821e-07, global = -4.61083e-09, cumulative = 0.03351
smoothSolver:  Solving for omega, Initial residual = 6.44814e-08, Final residual = 7.11349e-09, No Iterations 2
smoothSolver:  Solving for k, Initial residual = 5.65349e-07, Final residual = 4.23758e-08, No Iterations 4
ExecutionTime = 5.77 s  ClockTime = 6 s

scalarTransport execute: age
smoothSolver:  Solving for age, Initial residual = 0.000358761, Final residual = 3.58138e-05, No Iterations 13

Time = 469

smoothSolver:  Solving for Ux, Initial residual = 6.71362e-07, Final residual = 4.23262e-08, No Iterations 5
smoothSolver:  Solving for Uy, Initial residual = 5.11216e-07, Final residual = 4.35476e-08, No Iterations 4
GAMG:  Solving for p, Initial residual = 1.9962e-06, Final residual = 1.81053e-07, No Iterations 2
time step continuity errors : sum local = 5.49397e-07, global = -1.22729e-08, cumulative = 0.03351
smoothSolver:  Solving for omega, Initial residual = 7.72712e-08, Final residual = 7.04142e-09, No Iterations 2
smoothSolver:  Solving for k, Initial residual = 5.49834e-07, Final residual = 4.14012e-08, No Iterations 4
ExecutionTime = 5.78 s  ClockTime = 6 s

scalarTransport execute: age
smoothSolver:  Solving for age, Initial residual = 0.000357617, Final residual = 3.10076e-05, No Iterations 14

Time = 470

smoothSolver:  Solving for Ux, Initial residual = 7.21908e-07, Final residual = 6.59544e-08, No Iterations 4
smoothSolver:  Solving for Uy, Initial residual = 5.38628e-07, Final residual = 4.09856e-08, No Iterations 4
GAMG:  Solving for p, Initial residual = 2.42983e-06, Final residual = 2.04896e-07, No Iterations 2
time step continuity errors : sum local = 6.21747e-07, global = -1.74367e-08, cumulative = 0.03351
smoothSolver:  Solving for omega, Initial residual = 1.00449e-07, Final residual = 7.11898e-09, No Iterations 2
smoothSolver:  Solving for k, Initial residual = 5.26333e-07, Final residual = 3.99999e-08, No Iterations 4
ExecutionTime = 5.8 s  ClockTime = 6 s

scalarTransport execute: age
smoothSolver:  Solving for age, Initial residual = 0.000356451, Final residual = 3.08316e-05, No Iterations 14

Time = 471

smoothSolver:  Solving for Ux, Initial residual = 6.68652e-07, Final residual = 6.43044e-08, No Iterations 4
smoothSolver:  Solving for Uy, Initial residual = 4.98221e-07, Final residual = 3.78976e-08, No Iterations 4
GAMG:  Solving for p, Initial residual = 2.2585e-06, Final residual = 1.89529e-07, No Iterations 2
time step continuity errors : sum local = 5.75117e-07, global = -2.21127e-08, cumulative = 0.03351
smoothSolver:  Solving for omega, Initial residual = 1.08914e-07, Final residual = 6.74674e-09, No Iterations 2
smoothSolver:  Solving for k, Initial residual = 5.02883e-07, Final residual = 3.81268e-08, No Iterations 4
ExecutionTime = 5.81 s  ClockTime = 6 s

scalarTransport execute: age
smoothSolver:  Solving for age, Initial residual = 0.000355206, Final residual = 3.54692e-05, No Iterations 13

Time = 472

smoothSolver:  Solving for Ux, Initial residual = 7.00162e-07, Final residual = 6.16379e-08, No Iterations 4
smoothSolver:  Solving for Uy, Initial residual = 5.02334e-07, Final residual = 3.58326e-08, No Iterations 4
GAMG:  Solving for p, Initial residual = 2.26599e-06, Final residual = 1.82267e-07, No Iterations 2
time step continuity errors : sum local = 5.53082e-07, global = -2.29812e-08, cumulative = 0.03351
smoothSolver:  Solving for omega, Initial residual = 1.09474e-07, Final residual = 6.46571e-09, No Iterations 2
smoothSolver:  Solving for k, Initial residual = 4.79234e-07, Final residual = 3.60232e-08, No Iterations 4
ExecutionTime = 5.82 s  ClockTime = 6 s

scalarTransport execute: age
smoothSolver:  Solving for age, Initial residual = 0.000353902, Final residual = 3.07028e-05, No Iterations 14

Time = 473

smoothSolver:  Solving for Ux, Initial residual = 6.29174e-07, Final residual = 6.09133e-08, No Iterations 4
smoothSolver:  Solving for Uy, Initial residual = 4.54464e-07, Final residual = 3.4367e-08, No Iterations 4
GAMG:  Solving for p, Initial residual = 2.16612e-06, Final residual = 1.68165e-07, No Iterations 2
time step continuity errors : sum local = 5.10289e-07, global = -2.06243e-08, cumulative = 0.0335099
smoothSolver:  Solving for omega, Initial residual = 1.1053e-07, Final residual = 6.24474e-09, No Iterations 2
smoothSolver:  Solving for k, Initial residual = 4.59085e-07, Final residual = 3.42426e-08, No Iterations 4
ExecutionTime = 5.84 s  ClockTime = 6 s

scalarTransport execute: age
smoothSolver:  Solving for age, Initial residual = 0.000352632, Final residual = 3.05353e-05, No Iterations 14

Time = 474

smoothSolver:  Solving for Ux, Initial residual = 5.58601e-07, Final residual = 3.64646e-08, No Iterations 5
smoothSolver:  Solving for Uy, Initial residual = 4.04823e-07, Final residual = 3.40657e-08, No Iterations 4
GAMG:  Solving for p, Initial residual = 1.60982e-06, Final residual = 1.22728e-07, No Iterations 2
time step continuity errors : sum local = 3.72413e-07, global = -1.65988e-08, cumulative = 0.0335099
smoothSolver:  Solving for omega, Initial residual = 6.15098e-08, Final residual = 5.42534e-09, No Iterations 2
smoothSolver:  Solving for k, Initial residual = 4.44982e-07, Final residual = 3.30675e-08, No Iterations 4
ExecutionTime = 5.85 s  ClockTime = 6 s

scalarTransport execute: age
smoothSolver:  Solving for age, Initial residual = 0.000351419, Final residual = 3.51401e-05, No Iterations 13

Time = 475

smoothSolver:  Solving for Ux, Initial residual = 5.45216e-07, Final residual = 3.57886e-08, No Iterations 5
smoothSolver:  Solving for Uy, Initial residual = 3.88374e-07, Final residual = 3.44375e-08, No Iterations 4
GAMG:  Solving for p, Initial residual = 1.35755e-06, Final residual = 1.08665e-07, No Iterations 2
time step continuity errors : sum local = 3.2974e-07, global = -1.06881e-08, cumulative = 0.0335099
smoothSolver:  Solving for omega, Initial residual = 4.20916e-08, Final residual = 5.20137e-09, No Iterations 2
smoothSolver:  Solving for k, Initial residual = 4.35569e-07, Final residual = 3.22814e-08, No Iterations 4
ExecutionTime = 5.86 s  ClockTime = 6 s

scalarTransport execute: age
smoothSolver:  Solving for age, Initial residual = 0.000350325, Final residual = 3.04272e-05, No Iterations 14

Time = 476

smoothSolver:  Solving for Ux, Initial residual = 5.252e-07, Final residual = 3.5147e-08, No Iterations 5
smoothSolver:  Solving for Uy, Initial residual = 3.79137e-07, Final residual = 3.43645e-08, No Iterations 4
GAMG:  Solving for p, Initial residual = 1.42594e-06, Final residual = 1.22427e-07, No Iterations 2
time step continuity errors : sum local = 3.71499e-07, global = -4.9296e-09, cumulative = 0.0335099
smoothSolver:  Solving for omega, Initial residual = 4.23622e-08, Final residual = 5.18592e-09, No Iterations 2
smoothSolver:  Solving for k, Initial residual = 4.29055e-07, Final residual = 3.18345e-08, No Iterations 4
ExecutionTime = 5.87 s  ClockTime = 6 s

scalarTransport execute: age
smoothSolver:  Solving for age, Initial residual = 0.000349264, Final residual = 3.02684e-05, No Iterations 14

Time = 477

smoothSolver:  Solving for Ux, Initial residual = 5.05616e-07, Final residual = 3.4438e-08, No Iterations 5
smoothSolver:  Solving for Uy, Initial residual = 3.68815e-07, Final residual = 3.36372e-08, No Iterations 4
GAMG:  Solving for p, Initial residual = 1.35603e-06, Final residual = 1.13176e-07, No Iterations 2
time step continuity errors : sum local = 3.43428e-07, global = 6.88812e-10, cumulative = 0.0335099
smoothSolver:  Solving for omega, Initial residual = 3.3917e-08, Final residual = 4.88136e-09, No Iterations 2
smoothSolver:  Solving for k, Initial residual = 4.19367e-07, Final residual = 3.15627e-08, No Iterations 4
ExecutionTime = 5.89 s  ClockTime = 6 s

scalarTransport execute: age
smoothSolver:  Solving for age, Initial residual = 0.000348182, Final residual = 3.01272e-05, No Iterations 14

Time = 478

smoothSolver:  Solving for Ux, Initial residual = 4.94383e-07, Final residual = 3.3363e-08, No Iterations 5
smoothSolver:  Solving for Uy, Initial residual = 3.63095e-07, Final residual = 3.33528e-08, No Iterations 4
GAMG:  Solving for p, Initial residual = 1.24405e-06, Final residual = 1.03471e-07, No Iterations 2
time step continuity errors : sum local = 3.13979e-07, global = 4.38076e-09, cumulative = 0.0335099
smoothSolver:  Solving for omega, Initial residual = 3.09492e-08, Final residual = 4.69253e-09, No Iterations 2
smoothSolver:  Solving for k, Initial residual = 4.12151e-07, Final residual = 3.13262e-08, No Iterations 4
ExecutionTime = 5.9 s  ClockTime = 6 s

scalarTransport execute: age
smoothSolver:  Solving for age, Initial residual = 0.000347157, Final residual = 3.47025e-05, No Iterations 13

Time = 479

smoothSolver:  Solving for Ux, Initial residual = 4.8099e-07, Final residual = 3.23582e-08, No Iterations 5
smoothSolver:  Solving for Uy, Initial residual = 3.60094e-07, Final residual = 3.33634e-08, No Iterations 4
GAMG:  Solving for p, Initial residual = 1.16163e-06, Final residual = 9.74509e-08, No Iterations 2
time step continuity errors : sum local = 2.95711e-07, global = 5.76809e-09, cumulative = 0.0335099
smoothSolver:  Solving for omega, Initial residual = 3.12177e-08, Final residual = 4.60872e-09, No Iterations 2
smoothSolver:  Solving for k, Initial residual = 4.07592e-07, Final residual = 3.09784e-08, No Iterations 4
ExecutionTime = 5.91 s  ClockTime = 6 s

scalarTransport execute: age
smoothSolver:  Solving for age, Initial residual = 0.000346211, Final residual = 3.00609e-05, No Iterations 14

Time = 480

smoothSolver:  Solving for Ux, Initial residual = 4.71103e-07, Final residual = 3.15798e-08, No Iterations 5
smoothSolver:  Solving for Uy, Initial residual = 3.57802e-07, Final residual = 3.34312e-08, No Iterations 4
GAMG:  Solving for p, Initial residual = 1.16212e-06, Final residual = 9.90861e-08, No Iterations 2
time step continuity errors : sum local = 3.00673e-07, global = 4.75938e-09, cumulative = 0.0335099
smoothSolver:  Solving for omega, Initial residual = 3.34484e-08, Final residual = 4.57397e-09, No Iterations 2
smoothSolver:  Solving for k, Initial residual = 4.04536e-07, Final residual = 3.06674e-08, No Iterations 4
ExecutionTime = 5.93 s  ClockTime = 6 s

scalarTransport execute: age
smoothSolver:  Solving for age, Initial residual = 0.00034526, Final residual = 2.99107e-05, No Iterations 14

Time = 481

smoothSolver:  Solving for Ux, Initial residual = 4.68502e-07, Final residual = 3.09742e-08, No Iterations 5
smoothSolver:  Solving for Uy, Initial residual = 3.5825e-07, Final residual = 3.32056e-08, No Iterations 4
GAMG:  Solving for p, Initial residual = 1.17266e-06, Final residual = 1.04591e-07, No Iterations 2
time step continuity errors : sum local = 3.17377e-07, global = 1.79948e-09, cumulative = 0.0335099
smoothSolver:  Solving for omega, Initial residual = 3.81425e-08, Final residual = 4.71429e-09, No Iterations 2
smoothSolver:  Solving for k, Initial residual = 4.01473e-07, Final residual = 3.03949e-08, No Iterations 4
ExecutionTime = 5.94 s  ClockTime = 6 s

scalarTransport execute: age
smoothSolver:  Solving for age, Initial residual = 0.000344319, Final residual = 3.44307e-05, No Iterations 13

Time = 482

smoothSolver:  Solving for Ux, Initial residual = 4.59039e-07, Final residual = 3.02102e-08, No Iterations 5
smoothSolver:  Solving for Uy, Initial residual = 3.54479e-07, Final residual = 3.2609e-08, No Iterations 4
GAMG:  Solving for p, Initial residual = 1.17668e-06, Final residual = 1.06622e-07, No Iterations 2
time step continuity errors : sum local = 3.23541e-07, global = -2.59489e-09, cumulative = 0.0335099
smoothSolver:  Solving for omega, Initial residual = 3.9891e-08, Final residual = 4.77749e-09, No Iterations 2
smoothSolver:  Solving for k, Initial residual = 3.97995e-07, Final residual = 3.0062e-08, No Iterations 4
ExecutionTime = 5.95 s  ClockTime = 6 s

scalarTransport execute: age
smoothSolver:  Solving for age, Initial residual = 0.000343359, Final residual = 2.98156e-05, No Iterations 14

Time = 483

smoothSolver:  Solving for Ux, Initial residual = 5.02879e-07, Final residual = 4.83241e-08, No Iterations 4
smoothSolver:  Solving for Uy, Initial residual = 3.84682e-07, Final residual = 3.15881e-08, No Iterations 4
GAMG:  Solving for p, Initial residual = 1.8219e-06, Final residual = 1.53051e-07, No Iterations 2
time step continuity errors : sum local = 4.64428e-07, global = -6.84031e-09, cumulative = 0.0335099
smoothSolver:  Solving for omega, Initial residual = 6.93967e-08, Final residual = 5.23789e-09, No Iterations 2
smoothSolver:  Solving for k, Initial residual = 3.90141e-07, Final residual = 2.94796e-08, No Iterations 4
ExecutionTime = 5.96 s  ClockTime = 6 s

scalarTransport execute: age
smoothSolver:  Solving for age, Initial residual = 0.000342463, Final residual = 2.96529e-05, No Iterations 14

Time = 484

smoothSolver:  Solving for Ux, Initial residual = 4.97211e-07, Final residual = 4.77355e-08, No Iterations 4
smoothSolver:  Solving for Uy, Initial residual = 3.78346e-07, Final residual = 2.96351e-08, No Iterations 4
GAMG:  Solving for p, Initial residual = 1.67916e-06, Final residual = 1.4815e-07, No Iterations 2
time step continuity errors : sum local = 4.49555e-07, global = -1.20623e-08, cumulative = 0.0335099
smoothSolver:  Solving for omega, Initial residual = 7.82184e-08, Final residual = 5.12007e-09, No Iterations 2
smoothSolver:  Solving for k, Initial residual = 3.77945e-07, Final residual = 2.86445e-08, No Iterations 4
ExecutionTime = 5.98 s  ClockTime = 6 s

scalarTransport execute: age
smoothSolver:  Solving for age, Initial residual = 0.000341464, Final residual = 3.41192e-05, No Iterations 13

Time = 485

smoothSolver:  Solving for Ux, Initial residual = 4.44219e-07, Final residual = 2.73237e-08, No Iterations 5
smoothSolver:  Solving for Uy, Initial residual = 3.30773e-07, Final residual = 2.72381e-08, No Iterations 4
GAMG:  Solving for p, Initial residual = 1.13284e-06, Final residual = 1.00593e-07, No Iterations 2
time step continuity errors : sum local = 3.05245e-07, global = -1.67385e-08, cumulative = 0.0335099
smoothSolver:  Solving for omega, Initial residual = 4.88396e-08, Final residual = 4.44487e-09, No Iterations 2
smoothSolver:  Solving for k, Initial residual = 3.62085e-07, Final residual = 2.75999e-08, No Iterations 4
ExecutionTime = 5.99 s  ClockTime = 6 s

scalarTransport execute: age
smoothSolver:  Solving for age, Initial residual = 0.000340291, Final residual = 2.95323e-05, No Iterations 14

Time = 486

smoothSolver:  Solving for Ux, Initial residual = 4.05958e-07, Final residual = 2.55633e-08, No Iterations 5
smoothSolver:  Solving for Uy, Initial residual = 3.00611e-07, Final residual = 2.55616e-08, No Iterations 4
GAMG:  Solving for p, Initial residual = 1.08748e-06, Final residual = 8.85923e-08, No Iterations 2
time step continuity errors : sum local = 2.6883e-07, global = -1.77872e-08, cumulative = 0.0335099
smoothSolver:  Solving for omega, Initial residual = 3.84754e-08, Final residual = 9.74631e-09, No Iterations 1
smoothSolver:  Solving for k, Initial residual = 3.48043e-07, Final residual = 2.63821e-08, No Iterations 4
ExecutionTime = 6 s  ClockTime = 6 s

scalarTransport execute: age
smoothSolver:  Solving for age, Initial residual = 0.00033914, Final residual = 2.93649e-05, No Iterations 14

Time = 487

smoothSolver:  Solving for Ux, Initial residual = 3.80555e-07, Final residual = 2.46071e-08, No Iterations 5
smoothSolver:  Solving for Uy, Initial residual = 2.81085e-07, Final residual = 2.44037e-08, No Iterations 4
GAMG:  Solving for p, Initial residual = 9.80063e-07, Final residual = 7.25762e-08, No Iterations 2
time step continuity errors : sum local = 2.2023e-07, global = -1.68e-08, cumulative = 0.0335099
smoothSolver:  Solving for omega, Initial residual = 3.2486e-08, Final residual = 9.51209e-09, No Iterations 1
smoothSolver:  Solving for k, Initial residual = 3.33671e-07, Final residual = 2.5136e-08, No Iterations 4
ExecutionTime = 6.01 s  ClockTime = 6 s


SIMPLE solution converged in 487 iterations

scalarTransport execute: age
smoothSolver:  Solving for age, Initial residual = 0.000337925, Final residual = 3.37897e-05, No Iterations 13

End

