/*---------------------------------------------------------------------------*\
| =========                 |                                                 |
| \\      /  F ield         | OpenFOAM: The Open Source CFD Toolbox           |
|  \\    /   O peration     | Version:  v2012                                 |
|   \\  /    A nd           | Website:  www.openfoam.com                      |
|    \\/     M anipulation  |                                                 |
\*---------------------------------------------------------------------------*/
Build  : _7bdb509494-20201222 OPENFOAM=2012
Arch   : "LSB;label=32;scalar=64"
Exec   : simpleFoam
Date   : Feb 23 2023
Time   : 20:04:30
Host   : johnsDesktop
PID    : 12760
I/O    : uncollated
Case   : /home/john/of_runs/cases/dbl_0_35_8-00160_9
nProcs : 1
trapFpe: Floating point exception trapping enabled (FOAM_SIGFPE).
fileModificationChecking : Monitoring run-time modified files using timeStampMaster (fileModificationSkew 5, maxFileModificationPolls 20)
allowSystemOperations : Allowing user-supplied system call operations

// * * * * * * * * * * * * * * * * * * * * * * * * * * * * * * * * * * * * * //
Create time

Create mesh for time = 0


SIMPLE: convergence criteria
    field p	 tolerance 1e-06
    field U	 tolerance 1e-06
    field "(k|epsilon|omega|f|v2|age)"	 tolerance 1e-05

Reading field p

Reading field U

Reading/calculating face flux field phi

Selecting incompressible transport model Newtonian
Selecting turbulence model type RAS
Selecting RAS turbulence model kOmegaSST
Selecting patchDistMethod meshWave
RAS
{
    RASModel        kOmegaSST;
    turbulence      on;
    printCoeffs     on;
    alphaK1         0.85;
    alphaK2         1;
    alphaOmega1     0.5;
    alphaOmega2     0.856;
    gamma1          0.555556;
    gamma2          0.44;
    beta1           0.075;
    beta2           0.0828;
    betaStar        0.09;
    a1              0.31;
    b1              1;
    c1              10;
    F3              false;
    decayControl    false;
    kInf            0;
    omegaInf        0;
}

No MRF models present

No finite volume options present

Starting time loop

Selecting finite volume options type scalarSemiImplicitSource
    Source: unitySource
    - selecting all cells
    - selected 6556 cell(s) with volume 0.03165
Time = 1

smoothSolver:  Solving for Ux, Initial residual = 0, Final residual = 0, No Iterations 0
smoothSolver:  Solving for Uy, Initial residual = 1, Final residual = 0.0705456, No Iterations 2
GAMG:  Solving for p, Initial residual = 1, Final residual = 0.0589705, No Iterations 6
time step continuity errors : sum local = 0.00372641, global = -0.00103469, cumulative = -0.00103469
smoothSolver:  Solving for omega, Initial residual = 0.266888, Final residual = 0.0126037, No Iterations 3
smoothSolver:  Solving for k, Initial residual = 1, Final residual = 0.0803516, No Iterations 3
ExecutionTime = 0.06 s  ClockTime = 0 s

scalarTransport execute: age
smoothSolver:  Solving for age, Initial residual = 1, Final residual = 0.0837145, No Iterations 6

Time = 2

smoothSolver:  Solving for Ux, Initial residual = 0.585773, Final residual = 0.0500125, No Iterations 6
smoothSolver:  Solving for Uy, Initial residual = 0.281274, Final residual = 0.0192733, No Iterations 6
GAMG:  Solving for p, Initial residual = 0.0502272, Final residual = 0.00471909, No Iterations 3
time step continuity errors : sum local = 0.062573, global = 0.00354126, cumulative = 0.00250657
smoothSolver:  Solving for omega, Initial residual = 0.263498, Final residual = 0.0249344, No Iterations 3
smoothSolver:  Solving for k, Initial residual = 0.604631, Final residual = 0.0560164, No Iterations 4
ExecutionTime = 0.07 s  ClockTime = 0 s

scalarTransport execute: age
smoothSolver:  Solving for age, Initial residual = 0.589043, Final residual = 0.058395, No Iterations 7

Time = 3

smoothSolver:  Solving for Ux, Initial residual = 0.224699, Final residual = 0.0151516, No Iterations 6
smoothSolver:  Solving for Uy, Initial residual = 0.106618, Final residual = 0.00955624, No Iterations 5
GAMG:  Solving for p, Initial residual = 0.0531844, Final residual = 0.00342284, No Iterations 3
time step continuity errors : sum local = 0.0196752, global = 0.00144078, cumulative = 0.00394734
smoothSolver:  Solving for omega, Initial residual = 0.264978, Final residual = 0.0253247, No Iterations 4
smoothSolver:  Solving for k, Initial residual = 0.510713, Final residual = 0.0380029, No Iterations 5
ExecutionTime = 0.09 s  ClockTime = 0 s

scalarTransport execute: age
smoothSolver:  Solving for age, Initial residual = 0.40354, Final residual = 0.0376709, No Iterations 9

Time = 4

smoothSolver:  Solving for Ux, Initial residual = 0.112872, Final residual = 0.00970015, No Iterations 4
smoothSolver:  Solving for Uy, Initial residual = 0.052676, Final residual = 0.00470437, No Iterations 4
GAMG:  Solving for p, Initial residual = 0.0862432, Final residual = 0.00385539, No Iterations 3
time step continuity errors : sum local = 0.0107707, global = 0.000504501, cumulative = 0.00445184
smoothSolver:  Solving for omega, Initial residual = 0.151438, Final residual = 0.0103486, No Iterations 5
smoothSolver:  Solving for k, Initial residual = 0.439852, Final residual = 0.0368869, No Iterations 5
ExecutionTime = 0.1 s  ClockTime = 0 s

scalarTransport execute: age
smoothSolver:  Solving for age, Initial residual = 0.293057, Final residual = 0.0292752, No Iterations 8

Time = 5

smoothSolver:  Solving for Ux, Initial residual = 0.0695952, Final residual = 0.00592402, No Iterations 5
smoothSolver:  Solving for Uy, Initial residual = 0.0311586, Final residual = 0.00208919, No Iterations 5
GAMG:  Solving for p, Initial residual = 0.0769604, Final residual = 0.00327109, No Iterations 2
time step continuity errors : sum local = 0.00812054, global = -3.75289e-05, cumulative = 0.00441431
smoothSolver:  Solving for omega, Initial residual = 0.105333, Final residual = 0.0079018, No Iterations 5
smoothSolver:  Solving for k, Initial residual = 0.343278, Final residual = 0.0311332, No Iterations 5
ExecutionTime = 0.11 s  ClockTime = 0 s

scalarTransport execute: age
smoothSolver:  Solving for age, Initial residual = 0.223002, Final residual = 0.0215079, No Iterations 9

Time = 6

smoothSolver:  Solving for Ux, Initial residual = 0.0495657, Final residual = 0.00337719, No Iterations 6
smoothSolver:  Solving for Uy, Initial residual = 0.0238286, Final residual = 0.00184294, No Iterations 5
GAMG:  Solving for p, Initial residual = 0.061365, Final residual = 0.00333298, No Iterations 2
time step continuity errors : sum local = 0.00843722, global = -0.00047497, cumulative = 0.00393935
smoothSolver:  Solving for omega, Initial residual = 0.0829347, Final residual = 0.00665467, No Iterations 5
smoothSolver:  Solving for k, Initial residual = 0.274783, Final residual = 0.0264566, No Iterations 5
ExecutionTime = 0.12 s  ClockTime = 0 s

scalarTransport execute: age
smoothSolver:  Solving for age, Initial residual = 0.178623, Final residual = 0.0164957, No Iterations 10

Time = 7

smoothSolver:  Solving for Ux, Initial residual = 0.0403289, Final residual = 0.00270944, No Iterations 6
smoothSolver:  Solving for Uy, Initial residual = 0.0202776, Final residual = 0.00167888, No Iterations 5
GAMG:  Solving for p, Initial residual = 0.0500955, Final residual = 0.0038369, No Iterations 2
time step continuity errors : sum local = 0.00996225, global = -0.000840429, cumulative = 0.00309892
smoothSolver:  Solving for omega, Initial residual = 0.063643, Final residual = 0.00546821, No Iterations 5
smoothSolver:  Solving for k, Initial residual = 0.227634, Final residual = 0.0144669, No Iterations 6
ExecutionTime = 0.14 s  ClockTime = 0 s

scalarTransport execute: age
smoothSolver:  Solving for age, Initial residual = 0.148461, Final residual = 0.0147859, No Iterations 10

Time = 8

smoothSolver:  Solving for Ux, Initial residual = 0.0322719, Final residual = 0.0029718, No Iterations 5
smoothSolver:  Solving for Uy, Initial residual = 0.018256, Final residual = 0.00157551, No Iterations 5
GAMG:  Solving for p, Initial residual = 0.0403348, Final residual = 0.00306385, No Iterations 2
time step continuity errors : sum local = 0.00840353, global = -0.000654617, cumulative = 0.0024443
smoothSolver:  Solving for omega, Initial residual = 0.0513978, Final residual = 0.00457355, No Iterations 5
smoothSolver:  Solving for k, Initial residual = 0.193987, Final residual = 0.0127805, No Iterations 6
ExecutionTime = 0.15 s  ClockTime = 0 s

scalarTransport execute: age
smoothSolver:  Solving for age, Initial residual = 0.129, Final residual = 0.0113468, No Iterations 11

Time = 9

smoothSolver:  Solving for Ux, Initial residual = 0.030586, Final residual = 0.00289222, No Iterations 5
smoothSolver:  Solving for Uy, Initial residual = 0.0168272, Final residual = 0.00144915, No Iterations 5
GAMG:  Solving for p, Initial residual = 0.0324086, Final residual = 0.00110202, No Iterations 2
time step continuity errors : sum local = 0.00321315, global = -0.000643973, cumulative = 0.00180033
smoothSolver:  Solving for omega, Initial residual = 0.0428125, Final residual = 0.00392152, No Iterations 5
smoothSolver:  Solving for k, Initial residual = 0.168389, Final residual = 0.0114383, No Iterations 6
ExecutionTime = 0.16 s  ClockTime = 0 s

scalarTransport execute: age
smoothSolver:  Solving for age, Initial residual = 0.112544, Final residual = 0.0102264, No Iterations 11

Time = 10

smoothSolver:  Solving for Ux, Initial residual = 0.0271212, Final residual = 0.00268269, No Iterations 5
smoothSolver:  Solving for Uy, Initial residual = 0.0157663, Final residual = 0.00140803, No Iterations 5
GAMG:  Solving for p, Initial residual = 0.0272402, Final residual = 0.00077902, No Iterations 2
time step continuity errors : sum local = 0.00230426, global = -0.000471482, cumulative = 0.00132884
smoothSolver:  Solving for omega, Initial residual = 0.035878, Final residual = 0.00338199, No Iterations 5
smoothSolver:  Solving for k, Initial residual = 0.148417, Final residual = 0.0103355, No Iterations 6
ExecutionTime = 0.17 s  ClockTime = 0 s

scalarTransport execute: age
smoothSolver:  Solving for age, Initial residual = 0.0978906, Final residual = 0.00907505, No Iterations 11

Time = 11

smoothSolver:  Solving for Ux, Initial residual = 0.0251844, Final residual = 0.00166874, No Iterations 6
smoothSolver:  Solving for Uy, Initial residual = 0.0148981, Final residual = 0.00137801, No Iterations 5
GAMG:  Solving for p, Initial residual = 0.0239486, Final residual = 0.000854965, No Iterations 2
time step continuity errors : sum local = 0.00255687, global = -0.000326541, cumulative = 0.0010023
smoothSolver:  Solving for omega, Initial residual = 0.0304874, Final residual = 0.0029381, No Iterations 5
smoothSolver:  Solving for k, Initial residual = 0.132444, Final residual = 0.00941219, No Iterations 6
ExecutionTime = 0.19 s  ClockTime = 0 s

scalarTransport execute: age
smoothSolver:  Solving for age, Initial residual = 0.0854592, Final residual = 0.0081534, No Iterations 11

Time = 12

smoothSolver:  Solving for Ux, Initial residual = 0.0236191, Final residual = 0.00158542, No Iterations 6
smoothSolver:  Solving for Uy, Initial residual = 0.0143137, Final residual = 0.00135599, No Iterations 5
GAMG:  Solving for p, Initial residual = 0.0218063, Final residual = 0.000830638, No Iterations 2
time step continuity errors : sum local = 0.00250592, global = -0.000166981, cumulative = 0.000835322
smoothSolver:  Solving for omega, Initial residual = 0.0262225, Final residual = 0.00257435, No Iterations 5
smoothSolver:  Solving for k, Initial residual = 0.119395, Final residual = 0.00863015, No Iterations 6
ExecutionTime = 0.2 s  ClockTime = 0 s

scalarTransport execute: age
smoothSolver:  Solving for age, Initial residual = 0.0743906, Final residual = 0.00736774, No Iterations 11

Time = 13

smoothSolver:  Solving for Ux, Initial residual = 0.0223286, Final residual = 0.00150944, No Iterations 6
smoothSolver:  Solving for Uy, Initial residual = 0.0138508, Final residual = 0.00133826, No Iterations 5
GAMG:  Solving for p, Initial residual = 0.0203814, Final residual = 0.000765783, No Iterations 2
time step continuity errors : sum local = 0.00232279, global = 7.97465e-06, cumulative = 0.000843297
smoothSolver:  Solving for omega, Initial residual = 0.0227884, Final residual = 0.0022713, No Iterations 5
smoothSolver:  Solving for k, Initial residual = 0.10857, Final residual = 0.00796003, No Iterations 6
ExecutionTime = 0.21 s  ClockTime = 0 s

scalarTransport execute: age
smoothSolver:  Solving for age, Initial residual = 0.0657716, Final residual = 0.00566584, No Iterations 12

Time = 14

smoothSolver:  Solving for Ux, Initial residual = 0.0211248, Final residual = 0.00143472, No Iterations 6
smoothSolver:  Solving for Uy, Initial residual = 0.0134599, Final residual = 0.00132262, No Iterations 5
GAMG:  Solving for p, Initial residual = 0.019301, Final residual = 0.000730647, No Iterations 2
time step continuity errors : sum local = 0.00221595, global = 0.000163707, cumulative = 0.001007
smoothSolver:  Solving for omega, Initial residual = 0.0199965, Final residual = 0.00128966, No Iterations 6
smoothSolver:  Solving for k, Initial residual = 0.0992128, Final residual = 0.00736507, No Iterations 6
ExecutionTime = 0.23 s  ClockTime = 0 s

scalarTransport execute: age
smoothSolver:  Solving for age, Initial residual = 0.0564602, Final residual = 0.00509823, No Iterations 12

Time = 15

smoothSolver:  Solving for Ux, Initial residual = 0.0199508, Final residual = 0.0013575, No Iterations 6
smoothSolver:  Solving for Uy, Initial residual = 0.0131517, Final residual = 0.0013041, No Iterations 5
GAMG:  Solving for p, Initial residual = 0.0183607, Final residual = 0.000708769, No Iterations 2
time step continuity errors : sum local = 0.00214421, global = 0.000280453, cumulative = 0.00128746
smoothSolver:  Solving for omega, Initial residual = 0.0175398, Final residual = 0.00114593, No Iterations 6
smoothSolver:  Solving for k, Initial residual = 0.0911328, Final residual = 0.00684081, No Iterations 6
ExecutionTime = 0.24 s  ClockTime = 0 s

scalarTransport execute: age
smoothSolver:  Solving for age, Initial residual = 0.0493091, Final residual = 0.00458772, No Iterations 12

Time = 16

smoothSolver:  Solving for Ux, Initial residual = 0.0188797, Final residual = 0.00128197, No Iterations 6
smoothSolver:  Solving for Uy, Initial residual = 0.0128622, Final residual = 0.00128398, No Iterations 5
GAMG:  Solving for p, Initial residual = 0.0176485, Final residual = 0.000710645, No Iterations 2
time step continuity errors : sum local = 0.00213735, global = 0.000346, cumulative = 0.00163346
smoothSolver:  Solving for omega, Initial residual = 0.0155024, Final residual = 0.00102441, No Iterations 6
smoothSolver:  Solving for k, Initial residual = 0.0842379, Final residual = 0.00638287, No Iterations 6
ExecutionTime = 0.25 s  ClockTime = 0 s

scalarTransport execute: age
smoothSolver:  Solving for age, Initial residual = 0.0432687, Final residual = 0.00411274, No Iterations 12

Time = 17

smoothSolver:  Solving for Ux, Initial residual = 0.0178882, Final residual = 0.00121389, No Iterations 6
smoothSolver:  Solving for Uy, Initial residual = 0.01263, Final residual = 0.000826094, No Iterations 6
GAMG:  Solving for p, Initial residual = 0.0170412, Final residual = 0.0007051, No Iterations 2
time step continuity errors : sum local = 0.00210376, global = 0.000372475, cumulative = 0.00200593
smoothSolver:  Solving for omega, Initial residual = 0.0138084, Final residual = 0.000920712, No Iterations 6
smoothSolver:  Solving for k, Initial residual = 0.0782832, Final residual = 0.00597942, No Iterations 6
ExecutionTime = 0.27 s  ClockTime = 0 s

scalarTransport execute: age
smoothSolver:  Solving for age, Initial residual = 0.0382933, Final residual = 0.00366338, No Iterations 12

Time = 18

smoothSolver:  Solving for Ux, Initial residual = 0.017068, Final residual = 0.00115931, No Iterations 6
smoothSolver:  Solving for Uy, Initial residual = 0.0123401, Final residual = 0.00123295, No Iterations 5
GAMG:  Solving for p, Initial residual = 0.0164442, Final residual = 0.000676627, No Iterations 2
time step continuity errors : sum local = 0.00200003, global = 0.000365813, cumulative = 0.00237174
smoothSolver:  Solving for omega, Initial residual = 0.012376, Final residual = 0.000831429, No Iterations 6
smoothSolver:  Solving for k, Initial residual = 0.0730866, Final residual = 0.00562134, No Iterations 6
ExecutionTime = 0.28 s  ClockTime = 0 s

scalarTransport execute: age
smoothSolver:  Solving for age, Initial residual = 0.0337924, Final residual = 0.0032471, No Iterations 12

Time = 19

smoothSolver:  Solving for Ux, Initial residual = 0.0162286, Final residual = 0.001104, No Iterations 6
smoothSolver:  Solving for Uy, Initial residual = 0.0121591, Final residual = 0.000794497, No Iterations 6
GAMG:  Solving for p, Initial residual = 0.0159215, Final residual = 0.000648271, No Iterations 2
time step continuity errors : sum local = 0.00189721, global = 0.000356855, cumulative = 0.0027286
smoothSolver:  Solving for omega, Initial residual = 0.0111681, Final residual = 0.000754256, No Iterations 6
smoothSolver:  Solving for k, Initial residual = 0.0685073, Final residual = 0.00530103, No Iterations 6
ExecutionTime = 0.29 s  ClockTime = 0 s

scalarTransport execute: age
smoothSolver:  Solving for age, Initial residual = 0.0300625, Final residual = 0.00286734, No Iterations 12

Time = 20

smoothSolver:  Solving for Ux, Initial residual = 0.0155578, Final residual = 0.00106087, No Iterations 6
smoothSolver:  Solving for Uy, Initial residual = 0.0118932, Final residual = 0.00118859, No Iterations 5
GAMG:  Solving for p, Initial residual = 0.0153374, Final residual = 0.000610503, No Iterations 2
time step continuity errors : sum local = 0.00176818, global = 0.000340651, cumulative = 0.00306925
smoothSolver:  Solving for omega, Initial residual = 0.0101341, Final residual = 0.000687264, No Iterations 6
smoothSolver:  Solving for k, Initial residual = 0.0644463, Final residual = 0.00501315, No Iterations 6
ExecutionTime = 0.31 s  ClockTime = 0 s

scalarTransport execute: age
smoothSolver:  Solving for age, Initial residual = 0.0267597, Final residual = 0.0025096, No Iterations 12

Time = 21

smoothSolver:  Solving for Ux, Initial residual = 0.014899, Final residual = 0.00101821, No Iterations 6
smoothSolver:  Solving for Uy, Initial residual = 0.0116905, Final residual = 0.000764511, No Iterations 6
GAMG:  Solving for p, Initial residual = 0.0148088, Final residual = 0.000582618, No Iterations 2
time step continuity errors : sum local = 0.00167047, global = 0.000324484, cumulative = 0.00339374
smoothSolver:  Solving for omega, Initial residual = 0.00924357, Final residual = 0.00062867, No Iterations 6
smoothSolver:  Solving for k, Initial residual = 0.0608101, Final residual = 0.00475236, No Iterations 6
ExecutionTime = 0.32 s  ClockTime = 0 s

scalarTransport execute: age
smoothSolver:  Solving for age, Initial residual = 0.023937, Final residual = 0.00217907, No Iterations 12

Time = 22

smoothSolver:  Solving for Ux, Initial residual = 0.0143876, Final residual = 0.000985487, No Iterations 6
smoothSolver:  Solving for Uy, Initial residual = 0.011383, Final residual = 0.000745197, No Iterations 6
GAMG:  Solving for p, Initial residual = 0.0142379, Final residual = 0.000556019, No Iterations 2
time step continuity errors : sum local = 0.00157761, global = 0.000309619, cumulative = 0.00370335
smoothSolver:  Solving for omega, Initial residual = 0.00846215, Final residual = 0.000577144, No Iterations 6
smoothSolver:  Solving for k, Initial residual = 0.0575398, Final residual = 0.00451526, No Iterations 6
ExecutionTime = 0.33 s  ClockTime = 0 s

scalarTransport execute: age
smoothSolver:  Solving for age, Initial residual = 0.0214749, Final residual = 0.00185281, No Iterations 12

Time = 23

smoothSolver:  Solving for Ux, Initial residual = 0.0139303, Final residual = 0.000955134, No Iterations 6
smoothSolver:  Solving for Uy, Initial residual = 0.0110624, Final residual = 0.000725893, No Iterations 6
GAMG:  Solving for p, Initial residual = 0.0136077, Final residual = 0.000532646, No Iterations 2
time step continuity errors : sum local = 0.00149697, global = 0.00029519, cumulative = 0.00399854
smoothSolver:  Solving for omega, Initial residual = 0.00778021, Final residual = 0.000531625, No Iterations 6
smoothSolver:  Solving for k, Initial residual = 0.0545854, Final residual = 0.004299, No Iterations 6
ExecutionTime = 0.35 s  ClockTime = 0 s

scalarTransport execute: age
smoothSolver:  Solving for age, Initial residual = 0.0193668, Final residual = 0.00187048, No Iterations 11

Time = 24

smoothSolver:  Solving for Ux, Initial residual = 0.0134963, Final residual = 0.000927369, No Iterations 6
smoothSolver:  Solving for Uy, Initial residual = 0.0107351, Final residual = 0.000707077, No Iterations 6
GAMG:  Solving for p, Initial residual = 0.0129423, Final residual = 0.000511545, No Iterations 2
time step continuity errors : sum local = 0.00142551, global = 0.000282303, cumulative = 0.00428085
smoothSolver:  Solving for omega, Initial residual = 0.00717617, Final residual = 0.000491192, No Iterations 6
smoothSolver:  Solving for k, Initial residual = 0.0518989, Final residual = 0.00410066, No Iterations 6
ExecutionTime = 0.36 s  ClockTime = 0 s

scalarTransport execute: age
smoothSolver:  Solving for age, Initial residual = 0.0175331, Final residual = 0.00159012, No Iterations 11

Time = 25

smoothSolver:  Solving for Ux, Initial residual = 0.0130909, Final residual = 0.000902253, No Iterations 6
smoothSolver:  Solving for Uy, Initial residual = 0.0104165, Final residual = 0.000688691, No Iterations 6
GAMG:  Solving for p, Initial residual = 0.0122722, Final residual = 0.000491583, No Iterations 2
time step continuity errors : sum local = 0.00135939, global = 0.000271118, cumulative = 0.00455196
smoothSolver:  Solving for omega, Initial residual = 0.00663722, Final residual = 0.000455091, No Iterations 6
smoothSolver:  Solving for k, Initial residual = 0.0494433, Final residual = 0.00391786, No Iterations 6
ExecutionTime = 0.37 s  ClockTime = 0 s

scalarTransport execute: age
smoothSolver:  Solving for age, Initial residual = 0.0159898, Final residual = 0.00134721, No Iterations 11

Time = 26

smoothSolver:  Solving for Ux, Initial residual = 0.012739, Final residual = 0.000880368, No Iterations 6
smoothSolver:  Solving for Uy, Initial residual = 0.0100977, Final residual = 0.00066977, No Iterations 6
GAMG:  Solving for p, Initial residual = 0.0116053, Final residual = 0.00047149, No Iterations 2
time step continuity errors : sum local = 0.00129426, global = 0.000261058, cumulative = 0.00481302
smoothSolver:  Solving for omega, Initial residual = 0.00615913, Final residual = 0.000422766, No Iterations 6
smoothSolver:  Solving for k, Initial residual = 0.0471907, Final residual = 0.00374883, No Iterations 6
ExecutionTime = 0.39 s  ClockTime = 0 s

scalarTransport execute: age
smoothSolver:  Solving for age, Initial residual = 0.0146703, Final residual = 0.00137874, No Iterations 10

Time = 27

smoothSolver:  Solving for Ux, Initial residual = 0.0124285, Final residual = 0.0008619, No Iterations 6
smoothSolver:  Solving for Uy, Initial residual = 0.0097998, Final residual = 0.000650689, No Iterations 6
GAMG:  Solving for p, Initial residual = 0.0110286, Final residual = 0.000450409, No Iterations 2
time step continuity errors : sum local = 0.00122816, global = 0.000251645, cumulative = 0.00506467
smoothSolver:  Solving for omega, Initial residual = 0.00573127, Final residual = 0.000393708, No Iterations 6
smoothSolver:  Solving for k, Initial residual = 0.045111, Final residual = 0.00359175, No Iterations 6
ExecutionTime = 0.4 s  ClockTime = 0 s

scalarTransport execute: age
smoothSolver:  Solving for age, Initial residual = 0.0136426, Final residual = 0.00122496, No Iterations 10

Time = 28

smoothSolver:  Solving for Ux, Initial residual = 0.012154, Final residual = 0.000846475, No Iterations 6
smoothSolver:  Solving for Uy, Initial residual = 0.00951531, Final residual = 0.000631193, No Iterations 6
GAMG:  Solving for p, Initial residual = 0.0108381, Final residual = 0.000429808, No Iterations 2
time step continuity errors : sum local = 0.00116545, global = 0.000242928, cumulative = 0.0053076
smoothSolver:  Solving for omega, Initial residual = 0.00535923, Final residual = 0.000367312, No Iterations 6
smoothSolver:  Solving for k, Initial residual = 0.0431885, Final residual = 0.00344535, No Iterations 6
ExecutionTime = 0.41 s  ClockTime = 0 s

scalarTransport execute: age
smoothSolver:  Solving for age, Initial residual = 0.012867, Final residual = 0.0011118, No Iterations 10

Time = 29

smoothSolver:  Solving for Ux, Initial residual = 0.0119121, Final residual = 0.000834404, No Iterations 6
smoothSolver:  Solving for Uy, Initial residual = 0.00925581, Final residual = 0.000611295, No Iterations 6
GAMG:  Solving for p, Initial residual = 0.0108457, Final residual = 0.000411121, No Iterations 2
time step continuity errors : sum local = 0.00110924, global = 0.000235447, cumulative = 0.00554304
smoothSolver:  Solving for omega, Initial residual = 0.0050166, Final residual = 0.000343667, No Iterations 6
smoothSolver:  Solving for k, Initial residual = 0.0413933, Final residual = 0.00330804, No Iterations 6
ExecutionTime = 0.43 s  ClockTime = 0 s

scalarTransport execute: age
smoothSolver:  Solving for age, Initial residual = 0.0122125, Final residual = 0.00103219, No Iterations 10

Time = 30

smoothSolver:  Solving for Ux, Initial residual = 0.0117397, Final residual = 0.00082538, No Iterations 6
smoothSolver:  Solving for Uy, Initial residual = 0.00900263, Final residual = 0.000591156, No Iterations 6
GAMG:  Solving for p, Initial residual = 0.0110275, Final residual = 0.000401813, No Iterations 2
time step continuity errors : sum local = 0.00108005, global = 0.000229526, cumulative = 0.00577257
smoothSolver:  Solving for omega, Initial residual = 0.00471275, Final residual = 0.000322234, No Iterations 6
smoothSolver:  Solving for k, Initial residual = 0.0397164, Final residual = 0.00317901, No Iterations 6
ExecutionTime = 0.44 s  ClockTime = 0 s

scalarTransport execute: age
smoothSolver:  Solving for age, Initial residual = 0.0117571, Final residual = 0.0011709, No Iterations 9

Time = 31

smoothSolver:  Solving for Ux, Initial residual = 0.0116388, Final residual = 0.0008193, No Iterations 6
smoothSolver:  Solving for Uy, Initial residual = 0.00874047, Final residual = 0.000570639, No Iterations 6
GAMG:  Solving for p, Initial residual = 0.0110453, Final residual = 0.000408868, No Iterations 2
time step continuity errors : sum local = 0.00109171, global = 0.000224557, cumulative = 0.00599713
smoothSolver:  Solving for omega, Initial residual = 0.00443614, Final residual = 0.000302638, No Iterations 6
smoothSolver:  Solving for k, Initial residual = 0.0381461, Final residual = 0.00305766, No Iterations 6
ExecutionTime = 0.45 s  ClockTime = 0 s

scalarTransport execute: age
smoothSolver:  Solving for age, Initial residual = 0.011346, Final residual = 0.000983643, No Iterations 10

Time = 32

smoothSolver:  Solving for Ux, Initial residual = 0.0115903, Final residual = 0.00081545, No Iterations 6
smoothSolver:  Solving for Uy, Initial residual = 0.00847354, Final residual = 0.000844714, No Iterations 5
GAMG:  Solving for p, Initial residual = 0.011016, Final residual = 0.000419121, No Iterations 2
time step continuity errors : sum local = 0.0011136, global = 0.000218598, cumulative = 0.00621573
smoothSolver:  Solving for omega, Initial residual = 0.00418479, Final residual = 0.00028474, No Iterations 6
smoothSolver:  Solving for k, Initial residual = 0.0366683, Final residual = 0.00294302, No Iterations 6
ExecutionTime = 0.46 s  ClockTime = 0 s

scalarTransport execute: age
smoothSolver:  Solving for age, Initial residual = 0.0110949, Final residual = 0.000983063, No Iterations 10

Time = 33

smoothSolver:  Solving for Ux, Initial residual = 0.0115523, Final residual = 0.000811841, No Iterations 6
smoothSolver:  Solving for Uy, Initial residual = 0.00825777, Final residual = 0.000821862, No Iterations 5
GAMG:  Solving for p, Initial residual = 0.0108324, Final residual = 0.000428546, No Iterations 2
time step continuity errors : sum local = 0.00113329, global = 0.000212689, cumulative = 0.00642841
smoothSolver:  Solving for omega, Initial residual = 0.00395422, Final residual = 0.000268342, No Iterations 6
smoothSolver:  Solving for k, Initial residual = 0.0352695, Final residual = 0.00283441, No Iterations 6
ExecutionTime = 0.48 s  ClockTime = 0 s

scalarTransport execute: age
smoothSolver:  Solving for age, Initial residual = 0.0108986, Final residual = 0.000995305, No Iterations 10

Time = 34

smoothSolver:  Solving for Ux, Initial residual = 0.0115688, Final residual = 0.000811137, No Iterations 6
smoothSolver:  Solving for Uy, Initial residual = 0.0080022, Final residual = 0.000793875, No Iterations 5
GAMG:  Solving for p, Initial residual = 0.010597, Final residual = 0.000433686, No Iterations 2
time step continuity errors : sum local = 0.00114245, global = 0.000206942, cumulative = 0.00663536
smoothSolver:  Solving for omega, Initial residual = 0.00374132, Final residual = 0.000253231, No Iterations 6
smoothSolver:  Solving for k, Initial residual = 0.0339474, Final residual = 0.00273153, No Iterations 6
ExecutionTime = 0.49 s  ClockTime = 0 s

scalarTransport execute: age
smoothSolver:  Solving for age, Initial residual = 0.0107542, Final residual = 0.00101232, No Iterations 10

Time = 35

smoothSolver:  Solving for Ux, Initial residual = 0.0116147, Final residual = 0.000812871, No Iterations 6
smoothSolver:  Solving for Uy, Initial residual = 0.00769921, Final residual = 0.000761511, No Iterations 5
GAMG:  Solving for p, Initial residual = 0.0103796, Final residual = 0.000428335, No Iterations 2
time step continuity errors : sum local = 0.00112453, global = 0.000195634, cumulative = 0.00683099
smoothSolver:  Solving for omega, Initial residual = 0.00354708, Final residual = 0.000239266, No Iterations 6
smoothSolver:  Solving for k, Initial residual = 0.0326947, Final residual = 0.00263395, No Iterations 6
ExecutionTime = 0.5 s  ClockTime = 0 s

scalarTransport execute: age
smoothSolver:  Solving for age, Initial residual = 0.0106761, Final residual = 0.00102365, No Iterations 10

Time = 36

smoothSolver:  Solving for Ux, Initial residual = 0.0116872, Final residual = 0.000816685, No Iterations 6
smoothSolver:  Solving for Uy, Initial residual = 0.00737222, Final residual = 0.000727162, No Iterations 5
GAMG:  Solving for p, Initial residual = 0.0100679, Final residual = 0.00042159, No Iterations 2
time step continuity errors : sum local = 0.00110137, global = 0.000184659, cumulative = 0.00701565
smoothSolver:  Solving for omega, Initial residual = 0.00336691, Final residual = 0.00022628, No Iterations 6
smoothSolver:  Solving for k, Initial residual = 0.0315098, Final residual = 0.00254147, No Iterations 6
ExecutionTime = 0.52 s  ClockTime = 0 s

scalarTransport execute: age
smoothSolver:  Solving for age, Initial residual = 0.0106219, Final residual = 0.00103657, No Iterations 10

Time = 37

smoothSolver:  Solving for Ux, Initial residual = 0.0117537, Final residual = 0.000820547, No Iterations 6
smoothSolver:  Solving for Uy, Initial residual = 0.00704646, Final residual = 0.000693169, No Iterations 5
GAMG:  Solving for p, Initial residual = 0.00978809, Final residual = 0.000413888, No Iterations 2
time step continuity errors : sum local = 0.00107719, global = 0.000174563, cumulative = 0.00719021
smoothSolver:  Solving for omega, Initial residual = 0.0032029, Final residual = 0.000214234, No Iterations 6
smoothSolver:  Solving for k, Initial residual = 0.0303858, Final residual = 0.00245373, No Iterations 6
ExecutionTime = 0.53 s  ClockTime = 0 s

scalarTransport execute: age
smoothSolver:  Solving for age, Initial residual = 0.0105701, Final residual = 0.00104886, No Iterations 10

Time = 38

smoothSolver:  Solving for Ux, Initial residual = 0.0118088, Final residual = 0.00082454, No Iterations 6
smoothSolver:  Solving for Uy, Initial residual = 0.00673287, Final residual = 0.000660491, No Iterations 5
GAMG:  Solving for p, Initial residual = 0.00960165, Final residual = 0.00041095, No Iterations 2
time step continuity errors : sum local = 0.00106634, global = 0.000165768, cumulative = 0.00735598
smoothSolver:  Solving for omega, Initial residual = 0.00304721, Final residual = 0.000202982, No Iterations 6
smoothSolver:  Solving for k, Initial residual = 0.0293179, Final residual = 0.00237046, No Iterations 6
ExecutionTime = 0.54 s  ClockTime = 0 s

scalarTransport execute: age
smoothSolver:  Solving for age, Initial residual = 0.0105001, Final residual = 0.000900554, No Iterations 11

Time = 39

smoothSolver:  Solving for Ux, Initial residual = 0.0118519, Final residual = 0.000828283, No Iterations 6
smoothSolver:  Solving for Uy, Initial residual = 0.00645231, Final residual = 0.000630012, No Iterations 5
GAMG:  Solving for p, Initial residual = 0.00952617, Final residual = 0.000419836, No Iterations 2
time step continuity errors : sum local = 0.00108696, global = 0.000158772, cumulative = 0.00751475
smoothSolver:  Solving for omega, Initial residual = 0.0028965, Final residual = 0.000192182, No Iterations 6
smoothSolver:  Solving for k, Initial residual = 0.0283083, Final residual = 0.00229164, No Iterations 6
ExecutionTime = 0.55 s  ClockTime = 0 s

scalarTransport execute: age
smoothSolver:  Solving for age, Initial residual = 0.0104342, Final residual = 0.000911621, No Iterations 11

Time = 40

smoothSolver:  Solving for Ux, Initial residual = 0.0118968, Final residual = 0.000831447, No Iterations 6
smoothSolver:  Solving for Uy, Initial residual = 0.00619318, Final residual = 0.000602152, No Iterations 5
GAMG:  Solving for p, Initial residual = 0.00945799, Final residual = 0.000439451, No Iterations 2
time step continuity errors : sum local = 0.0011362, global = 0.000153959, cumulative = 0.00766871
smoothSolver:  Solving for omega, Initial residual = 0.00276502, Final residual = 0.000182123, No Iterations 6
smoothSolver:  Solving for k, Initial residual = 0.0273541, Final residual = 0.00221681, No Iterations 6
ExecutionTime = 0.57 s  ClockTime = 0 s

scalarTransport execute: age
smoothSolver:  Solving for age, Initial residual = 0.0103883, Final residual = 0.00092747, No Iterations 11

Time = 41

smoothSolver:  Solving for Ux, Initial residual = 0.0119695, Final residual = 0.000834287, No Iterations 6
smoothSolver:  Solving for Uy, Initial residual = 0.00595364, Final residual = 0.0005771, No Iterations 5
GAMG:  Solving for p, Initial residual = 0.0093899, Final residual = 0.000466066, No Iterations 2
time step continuity errors : sum local = 0.00120416, global = 0.000151349, cumulative = 0.00782006
smoothSolver:  Solving for omega, Initial residual = 0.00263979, Final residual = 0.000172784, No Iterations 6
smoothSolver:  Solving for k, Initial residual = 0.0264508, Final residual = 0.00214558, No Iterations 6
ExecutionTime = 0.58 s  ClockTime = 0 s

scalarTransport execute: age
smoothSolver:  Solving for age, Initial residual = 0.01031, Final residual = 0.000946826, No Iterations 11

Time = 42

smoothSolver:  Solving for Ux, Initial residual = 0.0120611, Final residual = 0.00083704, No Iterations 6
smoothSolver:  Solving for Uy, Initial residual = 0.00573863, Final residual = 0.000555127, No Iterations 5
GAMG:  Solving for p, Initial residual = 0.00934649, Final residual = 0.000497912, No Iterations 2
time step continuity errors : sum local = 0.00128562, global = 0.000155167, cumulative = 0.00797523
smoothSolver:  Solving for omega, Initial residual = 0.00252231, Final residual = 0.000164048, No Iterations 6
smoothSolver:  Solving for k, Initial residual = 0.025596, Final residual = 0.00207779, No Iterations 6
ExecutionTime = 0.59 s  ClockTime = 0 s

scalarTransport execute: age
smoothSolver:  Solving for age, Initial residual = 0.0102329, Final residual = 0.000966858, No Iterations 11

Time = 43

smoothSolver:  Solving for Ux, Initial residual = 0.0121367, Final residual = 0.000838935, No Iterations 6
smoothSolver:  Solving for Uy, Initial residual = 0.00555908, Final residual = 0.000536592, No Iterations 5
GAMG:  Solving for p, Initial residual = 0.00934435, Final residual = 0.000523758, No Iterations 2
time step continuity errors : sum local = 0.00135278, global = 0.000161011, cumulative = 0.00813624
smoothSolver:  Solving for omega, Initial residual = 0.00241402, Final residual = 0.000240189, No Iterations 5
smoothSolver:  Solving for k, Initial residual = 0.0248047, Final residual = 0.00201458, No Iterations 6
ExecutionTime = 0.61 s  ClockTime = 0 s

scalarTransport execute: age
smoothSolver:  Solving for age, Initial residual = 0.010178, Final residual = 0.000985132, No Iterations 11

Time = 44

smoothSolver:  Solving for Ux, Initial residual = 0.012217, Final residual = 0.000841947, No Iterations 6
smoothSolver:  Solving for Uy, Initial residual = 0.00541583, Final residual = 0.000521888, No Iterations 5
GAMG:  Solving for p, Initial residual = 0.00937632, Final residual = 0.000548372, No Iterations 2
time step continuity errors : sum local = 0.00141738, global = 0.000168243, cumulative = 0.00830448
smoothSolver:  Solving for omega, Initial residual = 0.00232389, Final residual = 0.000229456, No Iterations 5
smoothSolver:  Solving for k, Initial residual = 0.0240625, Final residual = 0.0019548, No Iterations 6
ExecutionTime = 0.62 s  ClockTime = 0 s

scalarTransport execute: age
smoothSolver:  Solving for age, Initial residual = 0.010119, Final residual = 0.00100702, No Iterations 11

Time = 45

smoothSolver:  Solving for Ux, Initial residual = 0.0122925, Final residual = 0.000845364, No Iterations 6
smoothSolver:  Solving for Uy, Initial residual = 0.00530566, Final residual = 0.000510853, No Iterations 5
GAMG:  Solving for p, Initial residual = 0.00942354, Final residual = 0.000569476, No Iterations 2
time step continuity errors : sum local = 0.00147346, global = 0.000175787, cumulative = 0.00848027
smoothSolver:  Solving for omega, Initial residual = 0.00223892, Final residual = 0.000219265, No Iterations 5
smoothSolver:  Solving for k, Initial residual = 0.0233544, Final residual = 0.00189753, No Iterations 6
ExecutionTime = 0.63 s  ClockTime = 0 s

scalarTransport execute: age
smoothSolver:  Solving for age, Initial residual = 0.0100998, Final residual = 0.000908135, No Iterations 12

Time = 46

smoothSolver:  Solving for Ux, Initial residual = 0.0123591, Final residual = 0.000849165, No Iterations 6
smoothSolver:  Solving for Uy, Initial residual = 0.00522442, Final residual = 0.000503569, No Iterations 5
GAMG:  Solving for p, Initial residual = 0.00945284, Final residual = 0.000587784, No Iterations 2
time step continuity errors : sum local = 0.00152263, global = 0.000183157, cumulative = 0.00866342
smoothSolver:  Solving for omega, Initial residual = 0.00216102, Final residual = 0.000209566, No Iterations 5
smoothSolver:  Solving for k, Initial residual = 0.0226769, Final residual = 0.0018425, No Iterations 6
ExecutionTime = 0.65 s  ClockTime = 0 s

scalarTransport execute: age
smoothSolver:  Solving for age, Initial residual = 0.0102924, Final residual = 0.000955343, No Iterations 12

Time = 47

smoothSolver:  Solving for Ux, Initial residual = 0.0124284, Final residual = 0.000853426, No Iterations 6
smoothSolver:  Solving for Uy, Initial residual = 0.00517605, Final residual = 0.000500648, No Iterations 5
GAMG:  Solving for p, Initial residual = 0.00947992, Final residual = 0.000603083, No Iterations 2
time step continuity errors : sum local = 0.00156313, global = 0.000188836, cumulative = 0.00885226
smoothSolver:  Solving for omega, Initial residual = 0.00208969, Final residual = 0.000200421, No Iterations 5
smoothSolver:  Solving for k, Initial residual = 0.0220307, Final residual = 0.00178975, No Iterations 6
ExecutionTime = 0.66 s  ClockTime = 0 s

scalarTransport execute: age
smoothSolver:  Solving for age, Initial residual = 0.0104874, Final residual = 0.000993424, No Iterations 12

Time = 48

smoothSolver:  Solving for Ux, Initial residual = 0.012494, Final residual = 0.000858105, No Iterations 6
smoothSolver:  Solving for Uy, Initial residual = 0.00516218, Final residual = 0.000501999, No Iterations 5
GAMG:  Solving for p, Initial residual = 0.00953747, Final residual = 0.00061501, No Iterations 2
time step continuity errors : sum local = 0.00159395, global = 0.000190879, cumulative = 0.00904314
smoothSolver:  Solving for omega, Initial residual = 0.00201966, Final residual = 0.000191822, No Iterations 5
smoothSolver:  Solving for k, Initial residual = 0.0214136, Final residual = 0.00173918, No Iterations 6
ExecutionTime = 0.67 s  ClockTime = 0 s

scalarTransport execute: age
smoothSolver:  Solving for age, Initial residual = 0.0107482, Final residual = 0.00100082, No Iterations 13

Time = 49

smoothSolver:  Solving for Ux, Initial residual = 0.0125743, Final residual = 0.000863255, No Iterations 6
smoothSolver:  Solving for Uy, Initial residual = 0.00517589, Final residual = 0.000506748, No Iterations 5
GAMG:  Solving for p, Initial residual = 0.00958249, Final residual = 0.000627015, No Iterations 2
time step continuity errors : sum local = 0.0016263, global = 0.000191061, cumulative = 0.0092342
smoothSolver:  Solving for omega, Initial residual = 0.00195113, Final residual = 0.000183607, No Iterations 5
smoothSolver:  Solving for k, Initial residual = 0.0208225, Final residual = 0.00169063, No Iterations 6
ExecutionTime = 0.68 s  ClockTime = 0 s

scalarTransport execute: age
smoothSolver:  Solving for age, Initial residual = 0.0126047, Final residual = 0.0011972, No Iterations 11

Time = 50

smoothSolver:  Solving for Ux, Initial residual = 0.0126533, Final residual = 0.000868723, No Iterations 6
smoothSolver:  Solving for Uy, Initial residual = 0.00521835, Final residual = 0.00051452, No Iterations 5
GAMG:  Solving for p, Initial residual = 0.00958533, Final residual = 0.000640581, No Iterations 2
time step continuity errors : sum local = 0.00166295, global = 0.000189844, cumulative = 0.00942404
smoothSolver:  Solving for omega, Initial residual = 0.0018848, Final residual = 0.000175902, No Iterations 5
smoothSolver:  Solving for k, Initial residual = 0.020253, Final residual = 0.00164386, No Iterations 6
ExecutionTime = 0.7 s  ClockTime = 0 s

scalarTransport execute: age
smoothSolver:  Solving for age, Initial residual = 0.0116367, Final residual = 0.00101918, No Iterations 12

Time = 51

smoothSolver:  Solving for Ux, Initial residual = 0.0127283, Final residual = 0.000874285, No Iterations 6
smoothSolver:  Solving for Uy, Initial residual = 0.00527665, Final residual = 0.000524836, No Iterations 5
GAMG:  Solving for p, Initial residual = 0.00962031, Final residual = 0.000645368, No Iterations 2
time step continuity errors : sum local = 0.00167708, global = 0.000187296, cumulative = 0.00961134
smoothSolver:  Solving for omega, Initial residual = 0.00182522, Final residual = 0.00016874, No Iterations 5
smoothSolver:  Solving for k, Initial residual = 0.0197065, Final residual = 0.00159879, No Iterations 6
ExecutionTime = 0.71 s  ClockTime = 0 s

scalarTransport execute: age
smoothSolver:  Solving for age, Initial residual = 0.0116817, Final residual = 0.00102164, No Iterations 12

Time = 52

smoothSolver:  Solving for Ux, Initial residual = 0.0127955, Final residual = 0.000879754, No Iterations 6
smoothSolver:  Solving for Uy, Initial residual = 0.00534472, Final residual = 0.000349835, No Iterations 6
GAMG:  Solving for p, Initial residual = 0.00990608, Final residual = 0.00064876, No Iterations 2
time step continuity errors : sum local = 0.00168965, global = 0.000186138, cumulative = 0.00979748
smoothSolver:  Solving for omega, Initial residual = 0.00176738, Final residual = 0.000161967, No Iterations 5
smoothSolver:  Solving for k, Initial residual = 0.0191798, Final residual = 0.00155533, No Iterations 6
ExecutionTime = 0.72 s  ClockTime = 0 s

scalarTransport execute: age
smoothSolver:  Solving for age, Initial residual = 0.0116475, Final residual = 0.00104373, No Iterations 12

Time = 53

smoothSolver:  Solving for Ux, Initial residual = 0.0128651, Final residual = 0.000884683, No Iterations 6
smoothSolver:  Solving for Uy, Initial residual = 0.00537476, Final residual = 0.00035523, No Iterations 6
GAMG:  Solving for p, Initial residual = 0.0102769, Final residual = 0.000658013, No Iterations 2
time step continuity errors : sum local = 0.00172508, global = 0.000185915, cumulative = 0.00998339
smoothSolver:  Solving for omega, Initial residual = 0.00171526, Final residual = 0.000155464, No Iterations 5
smoothSolver:  Solving for k, Initial residual = 0.0186723, Final residual = 0.00151329, No Iterations 6
ExecutionTime = 0.74 s  ClockTime = 0 s

scalarTransport execute: age
smoothSolver:  Solving for age, Initial residual = 0.0117956, Final residual = 0.00107664, No Iterations 12

Time = 54

smoothSolver:  Solving for Ux, Initial residual = 0.0129041, Final residual = 0.000888224, No Iterations 6
smoothSolver:  Solving for Uy, Initial residual = 0.00545647, Final residual = 0.000363681, No Iterations 6
GAMG:  Solving for p, Initial residual = 0.0107248, Final residual = 0.000676012, No Iterations 2
time step continuity errors : sum local = 0.00179602, global = 0.000188138, cumulative = 0.0101715
smoothSolver:  Solving for omega, Initial residual = 0.00166352, Final residual = 0.000149173, No Iterations 5
smoothSolver:  Solving for k, Initial residual = 0.0181822, Final residual = 0.00147259, No Iterations 6
ExecutionTime = 0.75 s  ClockTime = 0 s

scalarTransport execute: age
smoothSolver:  Solving for age, Initial residual = 0.012007, Final residual = 0.00112126, No Iterations 12

Time = 55

smoothSolver:  Solving for Ux, Initial residual = 0.0129159, Final residual = 0.000890673, No Iterations 6
smoothSolver:  Solving for Uy, Initial residual = 0.0055838, Final residual = 0.000374986, No Iterations 6
GAMG:  Solving for p, Initial residual = 0.0108846, Final residual = 0.000701841, No Iterations 2
time step continuity errors : sum local = 0.00184448, global = 0.000195773, cumulative = 0.0103673
smoothSolver:  Solving for omega, Initial residual = 0.00160538, Final residual = 0.000143229, No Iterations 5
smoothSolver:  Solving for k, Initial residual = 0.0177096, Final residual = 0.00143325, No Iterations 6
ExecutionTime = 0.76 s  ClockTime = 0 s

scalarTransport execute: age
smoothSolver:  Solving for age, Initial residual = 0.0122966, Final residual = 0.00117893, No Iterations 12

Time = 56

smoothSolver:  Solving for Ux, Initial residual = 0.0129315, Final residual = 0.000892851, No Iterations 6
smoothSolver:  Solving for Uy, Initial residual = 0.00572692, Final residual = 0.000388448, No Iterations 6
GAMG:  Solving for p, Initial residual = 0.0110121, Final residual = 0.000704132, No Iterations 2
time step continuity errors : sum local = 0.00183259, global = 0.000204433, cumulative = 0.0105717
smoothSolver:  Solving for omega, Initial residual = 0.00155894, Final residual = 0.000137313, No Iterations 5
smoothSolver:  Solving for k, Initial residual = 0.017251, Final residual = 0.00139522, No Iterations 6
ExecutionTime = 0.77 s  ClockTime = 0 s

scalarTransport execute: age
smoothSolver:  Solving for age, Initial residual = 0.0125619, Final residual = 0.00122144, No Iterations 12

Time = 57

smoothSolver:  Solving for Ux, Initial residual = 0.0129444, Final residual = 0.000894369, No Iterations 6
smoothSolver:  Solving for Uy, Initial residual = 0.005894, Final residual = 0.000403099, No Iterations 6
GAMG:  Solving for p, Initial residual = 0.010972, Final residual = 0.00067877, No Iterations 2
time step continuity errors : sum local = 0.00174689, global = 0.00021229, cumulative = 0.010784
smoothSolver:  Solving for omega, Initial residual = 0.00151427, Final residual = 0.000131372, No Iterations 5
smoothSolver:  Solving for k, Initial residual = 0.0168049, Final residual = 0.00135841, No Iterations 6
ExecutionTime = 0.79 s  ClockTime = 0 s

scalarTransport execute: age
smoothSolver:  Solving for age, Initial residual = 0.0129471, Final residual = 0.00127768, No Iterations 12

Time = 58

smoothSolver:  Solving for Ux, Initial residual = 0.012925, Final residual = 0.000895592, No Iterations 6
smoothSolver:  Solving for Uy, Initial residual = 0.00609414, Final residual = 0.000418772, No Iterations 6
GAMG:  Solving for p, Initial residual = 0.0109612, Final residual = 0.000693514, No Iterations 2
time step continuity errors : sum local = 0.00177615, global = 0.000220104, cumulative = 0.0110041
smoothSolver:  Solving for omega, Initial residual = 0.00145135, Final residual = 0.000126044, No Iterations 5
smoothSolver:  Solving for k, Initial residual = 0.0163749, Final residual = 0.00132277, No Iterations 6
ExecutionTime = 0.8 s  ClockTime = 0 s

scalarTransport execute: age
smoothSolver:  Solving for age, Initial residual = 0.0133997, Final residual = 0.00115885, No Iterations 13

Time = 59

smoothSolver:  Solving for Ux, Initial residual = 0.0128967, Final residual = 0.000896265, No Iterations 6
smoothSolver:  Solving for Uy, Initial residual = 0.00628276, Final residual = 0.000433904, No Iterations 6
GAMG:  Solving for p, Initial residual = 0.0109662, Final residual = 0.000709264, No Iterations 2
time step continuity errors : sum local = 0.00180974, global = 0.000226545, cumulative = 0.0112307
smoothSolver:  Solving for omega, Initial residual = 0.00140131, Final residual = 0.000121011, No Iterations 5
smoothSolver:  Solving for k, Initial residual = 0.015959, Final residual = 0.00128832, No Iterations 6
ExecutionTime = 0.81 s  ClockTime = 1 s

scalarTransport execute: age
smoothSolver:  Solving for age, Initial residual = 0.0140329, Final residual = 0.00121561, No Iterations 13

Time = 60

smoothSolver:  Solving for Ux, Initial residual = 0.0128672, Final residual = 0.000895189, No Iterations 6
smoothSolver:  Solving for Uy, Initial residual = 0.00646228, Final residual = 0.000448693, No Iterations 6
GAMG:  Solving for p, Initial residual = 0.0109475, Final residual = 0.000723721, No Iterations 2
time step continuity errors : sum local = 0.00184239, global = 0.000231387, cumulative = 0.0114621
smoothSolver:  Solving for omega, Initial residual = 0.00135985, Final residual = 0.000116266, No Iterations 5
smoothSolver:  Solving for k, Initial residual = 0.015558, Final residual = 0.00125506, No Iterations 6
ExecutionTime = 0.83 s  ClockTime = 1 s

scalarTransport execute: age
smoothSolver:  Solving for age, Initial residual = 0.0147287, Final residual = 0.00146612, No Iterations 12

Time = 61

smoothSolver:  Solving for Ux, Initial residual = 0.0128021, Final residual = 0.000892558, No Iterations 6
smoothSolver:  Solving for Uy, Initial residual = 0.00663851, Final residual = 0.000462962, No Iterations 6
GAMG:  Solving for p, Initial residual = 0.0108444, Final residual = 0.000739723, No Iterations 2
time step continuity errors : sum local = 0.00188057, global = 0.00023433, cumulative = 0.0116964
smoothSolver:  Solving for omega, Initial residual = 0.00131487, Final residual = 0.000111799, No Iterations 5
smoothSolver:  Solving for k, Initial residual = 0.0151716, Final residual = 0.0012229, No Iterations 6
ExecutionTime = 0.84 s  ClockTime = 1 s

scalarTransport execute: age
smoothSolver:  Solving for age, Initial residual = 0.0154857, Final residual = 0.00152919, No Iterations 12

Time = 62

smoothSolver:  Solving for Ux, Initial residual = 0.0127297, Final residual = 0.000888921, No Iterations 6
smoothSolver:  Solving for Uy, Initial residual = 0.00679934, Final residual = 0.000476583, No Iterations 6
GAMG:  Solving for p, Initial residual = 0.0106716, Final residual = 0.000754274, No Iterations 2
time step continuity errors : sum local = 0.00191309, global = 0.000234858, cumulative = 0.0119312
smoothSolver:  Solving for omega, Initial residual = 0.00127166, Final residual = 0.000107567, No Iterations 5
smoothSolver:  Solving for k, Initial residual = 0.0147967, Final residual = 0.00119179, No Iterations 6
ExecutionTime = 0.85 s  ClockTime = 1 s

scalarTransport execute: age
smoothSolver:  Solving for age, Initial residual = 0.0164211, Final residual = 0.00162795, No Iterations 12

Time = 63

smoothSolver:  Solving for Ux, Initial residual = 0.0126405, Final residual = 0.000884316, No Iterations 6
smoothSolver:  Solving for Uy, Initial residual = 0.00693911, Final residual = 0.000489268, No Iterations 6
GAMG:  Solving for p, Initial residual = 0.0104332, Final residual = 0.000758676, No Iterations 2
time step continuity errors : sum local = 0.00192026, global = 0.000234226, cumulative = 0.0121655
smoothSolver:  Solving for omega, Initial residual = 0.00122892, Final residual = 0.000103546, No Iterations 5
smoothSolver:  Solving for k, Initial residual = 0.0144352, Final residual = 0.00116172, No Iterations 6
ExecutionTime = 0.87 s  ClockTime = 1 s

scalarTransport execute: age
smoothSolver:  Solving for age, Initial residual = 0.0173107, Final residual = 0.00169497, No Iterations 12

Time = 64

smoothSolver:  Solving for Ux, Initial residual = 0.0125512, Final residual = 0.000878881, No Iterations 6
smoothSolver:  Solving for Uy, Initial residual = 0.00705707, Final residual = 0.00050087, No Iterations 6
GAMG:  Solving for p, Initial residual = 0.00998374, Final residual = 0.000738061, No Iterations 2
time step continuity errors : sum local = 0.00186012, global = 0.000230998, cumulative = 0.0123965
smoothSolver:  Solving for omega, Initial residual = 0.00118257, Final residual = 9.98727e-05, No Iterations 5
smoothSolver:  Solving for k, Initial residual = 0.0140878, Final residual = 0.00113271, No Iterations 6
ExecutionTime = 0.88 s  ClockTime = 1 s

scalarTransport execute: age
smoothSolver:  Solving for age, Initial residual = 0.018182, Final residual = 0.00164943, No Iterations 12

Time = 65

smoothSolver:  Solving for Ux, Initial residual = 0.0124311, Final residual = 0.000873696, No Iterations 6
smoothSolver:  Solving for Uy, Initial residual = 0.00714818, Final residual = 0.000511209, No Iterations 6
GAMG:  Solving for p, Initial residual = 0.00964155, Final residual = 0.000721118, No Iterations 2
time step continuity errors : sum local = 0.00180967, global = 0.000226313, cumulative = 0.0126228
smoothSolver:  Solving for omega, Initial residual = 0.00114735, Final residual = 9.64945e-05, No Iterations 5
smoothSolver:  Solving for k, Initial residual = 0.0137509, Final residual = 0.00110462, No Iterations 6
ExecutionTime = 0.89 s  ClockTime = 1 s

scalarTransport execute: age
smoothSolver:  Solving for age, Initial residual = 0.0189763, Final residual = 0.00168602, No Iterations 12

Time = 66

smoothSolver:  Solving for Ux, Initial residual = 0.0123159, Final residual = 0.000868838, No Iterations 6
smoothSolver:  Solving for Uy, Initial residual = 0.00721937, Final residual = 0.000520019, No Iterations 6
GAMG:  Solving for p, Initial residual = 0.00940123, Final residual = 0.000704917, No Iterations 2
time step continuity errors : sum local = 0.00176058, global = 0.000220379, cumulative = 0.0128432
smoothSolver:  Solving for omega, Initial residual = 0.00111708, Final residual = 9.33694e-05, No Iterations 5
smoothSolver:  Solving for k, Initial residual = 0.0134235, Final residual = 0.00107745, No Iterations 6
ExecutionTime = 0.9 s  ClockTime = 1 s

scalarTransport execute: age
smoothSolver:  Solving for age, Initial residual = 0.0190863, Final residual = 0.00188202, No Iterations 11

Time = 67

smoothSolver:  Solving for Ux, Initial residual = 0.01221, Final residual = 0.000864024, No Iterations 6
smoothSolver:  Solving for Uy, Initial residual = 0.00726643, Final residual = 0.000527479, No Iterations 6
GAMG:  Solving for p, Initial residual = 0.00922834, Final residual = 0.000688359, No Iterations 2
time step continuity errors : sum local = 0.00171142, global = 0.000213764, cumulative = 0.0130569
smoothSolver:  Solving for omega, Initial residual = 0.00109031, Final residual = 9.03971e-05, No Iterations 5
smoothSolver:  Solving for k, Initial residual = 0.013105, Final residual = 0.00105112, No Iterations 6
ExecutionTime = 0.92 s  ClockTime = 1 s

scalarTransport execute: age
smoothSolver:  Solving for age, Initial residual = 0.0190804, Final residual = 0.00183166, No Iterations 11

Time = 68

smoothSolver:  Solving for Ux, Initial residual = 0.0121136, Final residual = 0.000859074, No Iterations 6
smoothSolver:  Solving for Uy, Initial residual = 0.00730339, Final residual = 0.000533499, No Iterations 6
GAMG:  Solving for p, Initial residual = 0.00909474, Final residual = 0.000670569, No Iterations 2
time step continuity errors : sum local = 0.00166063, global = 0.00020666, cumulative = 0.0132636
smoothSolver:  Solving for omega, Initial residual = 0.00106461, Final residual = 8.75713e-05, No Iterations 5
smoothSolver:  Solving for k, Initial residual = 0.0127953, Final residual = 0.00102559, No Iterations 6
ExecutionTime = 0.93 s  ClockTime = 1 s

scalarTransport execute: age
smoothSolver:  Solving for age, Initial residual = 0.0185558, Final residual = 0.00173773, No Iterations 11

Time = 69

smoothSolver:  Solving for Ux, Initial residual = 0.0120525, Final residual = 0.000854082, No Iterations 6
smoothSolver:  Solving for Uy, Initial residual = 0.00732267, Final residual = 0.000538139, No Iterations 6
GAMG:  Solving for p, Initial residual = 0.00894223, Final residual = 0.0006502, No Iterations 2
time step continuity errors : sum local = 0.00160438, global = 0.00019946, cumulative = 0.013463
smoothSolver:  Solving for omega, Initial residual = 0.00103662, Final residual = 8.4839e-05, No Iterations 5
smoothSolver:  Solving for k, Initial residual = 0.0124939, Final residual = 0.00100085, No Iterations 6
ExecutionTime = 0.94 s  ClockTime = 1 s

scalarTransport execute: age
smoothSolver:  Solving for age, Initial residual = 0.0172386, Final residual = 0.00158021, No Iterations 11

Time = 70

smoothSolver:  Solving for Ux, Initial residual = 0.0119951, Final residual = 0.000849111, No Iterations 6
smoothSolver:  Solving for Uy, Initial residual = 0.00732722, Final residual = 0.000541509, No Iterations 6
GAMG:  Solving for p, Initial residual = 0.00873616, Final residual = 0.000630327, No Iterations 2
time step continuity errors : sum local = 0.00155105, global = 0.000187873, cumulative = 0.0136509
smoothSolver:  Solving for omega, Initial residual = 0.0010104, Final residual = 8.21995e-05, No Iterations 5
smoothSolver:  Solving for k, Initial residual = 0.012202, Final residual = 0.000976892, No Iterations 6
ExecutionTime = 0.96 s  ClockTime = 1 s

scalarTransport execute: age
smoothSolver:  Solving for age, Initial residual = 0.0156439, Final residual = 0.00145073, No Iterations 11

Time = 71

smoothSolver:  Solving for Ux, Initial residual = 0.0119533, Final residual = 0.000846266, No Iterations 6
smoothSolver:  Solving for Uy, Initial residual = 0.00731479, Final residual = 0.000543486, No Iterations 6
GAMG:  Solving for p, Initial residual = 0.00852009, Final residual = 0.000603198, No Iterations 2
time step continuity errors : sum local = 0.00147967, global = 0.000176073, cumulative = 0.013827
smoothSolver:  Solving for omega, Initial residual = 0.000982891, Final residual = 7.96939e-05, No Iterations 5
smoothSolver:  Solving for k, Initial residual = 0.0119178, Final residual = 0.000953634, No Iterations 6
ExecutionTime = 0.97 s  ClockTime = 1 s

scalarTransport execute: age
smoothSolver:  Solving for age, Initial residual = 0.0146843, Final residual = 0.00140185, No Iterations 11

Time = 72

smoothSolver:  Solving for Ux, Initial residual = 0.011902, Final residual = 0.000843172, No Iterations 6
smoothSolver:  Solving for Uy, Initial residual = 0.0072903, Final residual = 0.000544578, No Iterations 6
GAMG:  Solving for p, Initial residual = 0.0083458, Final residual = 0.000579955, No Iterations 2
time step continuity errors : sum local = 0.00141784, global = 0.000163953, cumulative = 0.0139909
smoothSolver:  Solving for omega, Initial residual = 0.0009572, Final residual = 7.73141e-05, No Iterations 5
smoothSolver:  Solving for k, Initial residual = 0.0116423, Final residual = 0.000931058, No Iterations 6
ExecutionTime = 0.98 s  ClockTime = 1 s

scalarTransport execute: age
smoothSolver:  Solving for age, Initial residual = 0.0139391, Final residual = 0.00126628, No Iterations 12

Time = 73

smoothSolver:  Solving for Ux, Initial residual = 0.0118376, Final residual = 0.000838723, No Iterations 6
smoothSolver:  Solving for Uy, Initial residual = 0.00725503, Final residual = 0.000544727, No Iterations 6
GAMG:  Solving for p, Initial residual = 0.00818959, Final residual = 0.000558331, No Iterations 2
time step continuity errors : sum local = 0.00135864, global = 0.000151895, cumulative = 0.0141428
smoothSolver:  Solving for omega, Initial residual = 0.000932788, Final residual = 7.50736e-05, No Iterations 5
smoothSolver:  Solving for k, Initial residual = 0.0113754, Final residual = 0.000909113, No Iterations 6
ExecutionTime = 0.99 s  ClockTime = 1 s

scalarTransport execute: age
smoothSolver:  Solving for age, Initial residual = 0.0134233, Final residual = 0.00127267, No Iterations 12

Time = 74

smoothSolver:  Solving for Ux, Initial residual = 0.011759, Final residual = 0.000833006, No Iterations 6
smoothSolver:  Solving for Uy, Initial residual = 0.00721273, Final residual = 0.000544046, No Iterations 6
GAMG:  Solving for p, Initial residual = 0.00812277, Final residual = 0.000539085, No Iterations 2
time step continuity errors : sum local = 0.00130581, global = 0.000139245, cumulative = 0.0142821
smoothSolver:  Solving for omega, Initial residual = 0.000910181, Final residual = 7.29366e-05, No Iterations 5
smoothSolver:  Solving for k, Initial residual = 0.0111158, Final residual = 0.000887721, No Iterations 6
ExecutionTime = 1.01 s  ClockTime = 1 s

scalarTransport execute: age
smoothSolver:  Solving for age, Initial residual = 0.0133366, Final residual = 0.00124312, No Iterations 12

Time = 75

smoothSolver:  Solving for Ux, Initial residual = 0.0116771, Final residual = 0.000826541, No Iterations 6
smoothSolver:  Solving for Uy, Initial residual = 0.00716728, Final residual = 0.000542593, No Iterations 6
GAMG:  Solving for p, Initial residual = 0.00806517, Final residual = 0.000523954, No Iterations 2
time step continuity errors : sum local = 0.00126332, global = 0.000127565, cumulative = 0.0144097
smoothSolver:  Solving for omega, Initial residual = 0.000890433, Final residual = 7.08878e-05, No Iterations 5
smoothSolver:  Solving for k, Initial residual = 0.010864, Final residual = 0.000866829, No Iterations 6
ExecutionTime = 1.02 s  ClockTime = 1 s

scalarTransport execute: age
smoothSolver:  Solving for age, Initial residual = 0.0131171, Final residual = 0.0012007, No Iterations 12

Time = 76

smoothSolver:  Solving for Ux, Initial residual = 0.0115867, Final residual = 0.000819663, No Iterations 6
smoothSolver:  Solving for Uy, Initial residual = 0.0071142, Final residual = 0.00054037, No Iterations 6
GAMG:  Solving for p, Initial residual = 0.00801327, Final residual = 0.000514573, No Iterations 2
time step continuity errors : sum local = 0.00123516, global = 0.00011747, cumulative = 0.0145271
smoothSolver:  Solving for omega, Initial residual = 0.000869628, Final residual = 6.89261e-05, No Iterations 5
smoothSolver:  Solving for k, Initial residual = 0.0106182, Final residual = 0.000846392, No Iterations 6
ExecutionTime = 1.03 s  ClockTime = 1 s

scalarTransport execute: age
smoothSolver:  Solving for age, Initial residual = 0.01293, Final residual = 0.00119127, No Iterations 12

Time = 77

smoothSolver:  Solving for Ux, Initial residual = 0.0114922, Final residual = 0.000812374, No Iterations 6
smoothSolver:  Solving for Uy, Initial residual = 0.00705824, Final residual = 0.000537328, No Iterations 6
GAMG:  Solving for p, Initial residual = 0.007964, Final residual = 0.000509628, No Iterations 2
time step continuity errors : sum local = 0.00121787, global = 0.000109096, cumulative = 0.0146362
smoothSolver:  Solving for omega, Initial residual = 0.000849887, Final residual = 6.70462e-05, No Iterations 5
smoothSolver:  Solving for k, Initial residual = 0.0103773, Final residual = 0.000826371, No Iterations 6
ExecutionTime = 1.05 s  ClockTime = 1 s

scalarTransport execute: age
smoothSolver:  Solving for age, Initial residual = 0.0127529, Final residual = 0.00120958, No Iterations 12

Time = 78

smoothSolver:  Solving for Ux, Initial residual = 0.0113907, Final residual = 0.00080457, No Iterations 6
smoothSolver:  Solving for Uy, Initial residual = 0.00699608, Final residual = 0.000533459, No Iterations 6
GAMG:  Solving for p, Initial residual = 0.00791869, Final residual = 0.000507172, No Iterations 2
time step continuity errors : sum local = 0.00120625, global = 0.000103366, cumulative = 0.0147396
smoothSolver:  Solving for omega, Initial residual = 0.000830833, Final residual = 6.51987e-05, No Iterations 5
smoothSolver:  Solving for k, Initial residual = 0.0101402, Final residual = 0.000806726, No Iterations 6
ExecutionTime = 1.06 s  ClockTime = 1 s

scalarTransport execute: age
smoothSolver:  Solving for age, Initial residual = 0.0126031, Final residual = 0.00124112, No Iterations 12

Time = 79

smoothSolver:  Solving for Ux, Initial residual = 0.011278, Final residual = 0.000796303, No Iterations 6
smoothSolver:  Solving for Uy, Initial residual = 0.00692968, Final residual = 0.000528552, No Iterations 6
GAMG:  Solving for p, Initial residual = 0.0079075, Final residual = 0.000501917, No Iterations 2
time step continuity errors : sum local = 0.0011878, global = 0.000108651, cumulative = 0.0148482
smoothSolver:  Solving for omega, Initial residual = 0.000810481, Final residual = 6.33673e-05, No Iterations 5
smoothSolver:  Solving for k, Initial residual = 0.00990787, Final residual = 0.000787435, No Iterations 6
ExecutionTime = 1.07 s  ClockTime = 1 s

scalarTransport execute: age
smoothSolver:  Solving for age, Initial residual = 0.0123995, Final residual = 0.00109843, No Iterations 13

Time = 80

smoothSolver:  Solving for Ux, Initial residual = 0.0111381, Final residual = 0.000786022, No Iterations 6
smoothSolver:  Solving for Uy, Initial residual = 0.00686699, Final residual = 0.000523322, No Iterations 6
GAMG:  Solving for p, Initial residual = 0.00790007, Final residual = 0.000505669, No Iterations 2
time step continuity errors : sum local = 0.0011911, global = 0.000104535, cumulative = 0.0149528
smoothSolver:  Solving for omega, Initial residual = 0.000795147, Final residual = 6.16071e-05, No Iterations 5
smoothSolver:  Solving for k, Initial residual = 0.00967885, Final residual = 0.000768485, No Iterations 6
ExecutionTime = 1.09 s  ClockTime = 1 s

scalarTransport execute: age
smoothSolver:  Solving for age, Initial residual = 0.0121032, Final residual = 0.00110334, No Iterations 13

Time = 81

smoothSolver:  Solving for Ux, Initial residual = 0.0110239, Final residual = 0.000777865, No Iterations 6
smoothSolver:  Solving for Uy, Initial residual = 0.00677573, Final residual = 0.000515221, No Iterations 6
GAMG:  Solving for p, Initial residual = 0.00788917, Final residual = 0.000497939, No Iterations 2
time step continuity errors : sum local = 0.00116657, global = 0.000103188, cumulative = 0.015056
smoothSolver:  Solving for omega, Initial residual = 0.000775923, Final residual = 5.99452e-05, No Iterations 5
smoothSolver:  Solving for k, Initial residual = 0.00945406, Final residual = 0.000749835, No Iterations 6
ExecutionTime = 1.1 s  ClockTime = 1 s

scalarTransport execute: age
smoothSolver:  Solving for age, Initial residual = 0.011698, Final residual = 0.00110482, No Iterations 13

Time = 82

smoothSolver:  Solving for Ux, Initial residual = 0.010894, Final residual = 0.000768849, No Iterations 6
smoothSolver:  Solving for Uy, Initial residual = 0.00668093, Final residual = 0.000507157, No Iterations 6
GAMG:  Solving for p, Initial residual = 0.00787663, Final residual = 0.000491494, No Iterations 2
time step continuity errors : sum local = 0.00114458, global = 0.000102279, cumulative = 0.0151582
smoothSolver:  Solving for omega, Initial residual = 0.000759775, Final residual = 5.8294e-05, No Iterations 5
smoothSolver:  Solving for k, Initial residual = 0.00923229, Final residual = 0.000731465, No Iterations 6
ExecutionTime = 1.11 s  ClockTime = 1 s

scalarTransport execute: age
smoothSolver:  Solving for age, Initial residual = 0.0112406, Final residual = 0.00111862, No Iterations 13

Time = 83

smoothSolver:  Solving for Ux, Initial residual = 0.0107527, Final residual = 0.000758889, No Iterations 6
smoothSolver:  Solving for Uy, Initial residual = 0.00657017, Final residual = 0.00049791, No Iterations 6
GAMG:  Solving for p, Initial residual = 0.00783983, Final residual = 0.000485132, No Iterations 2
time step continuity errors : sum local = 0.00112288, global = 0.000101959, cumulative = 0.0152602
smoothSolver:  Solving for omega, Initial residual = 0.000742882, Final residual = 5.66666e-05, No Iterations 5
smoothSolver:  Solving for k, Initial residual = 0.00901306, Final residual = 0.000713352, No Iterations 6
ExecutionTime = 1.12 s  ClockTime = 1 s

scalarTransport execute: age
smoothSolver:  Solving for age, Initial residual = 0.0108685, Final residual = 0.000994356, No Iterations 14

Time = 84

smoothSolver:  Solving for Ux, Initial residual = 0.0106054, Final residual = 0.000748343, No Iterations 6
smoothSolver:  Solving for Uy, Initial residual = 0.00644387, Final residual = 0.000487341, No Iterations 6
GAMG:  Solving for p, Initial residual = 0.00777124, Final residual = 0.000476966, No Iterations 2
time step continuity errors : sum local = 0.00109695, global = 0.000101907, cumulative = 0.0153621
smoothSolver:  Solving for omega, Initial residual = 0.000726667, Final residual = 5.50638e-05, No Iterations 5
smoothSolver:  Solving for k, Initial residual = 0.00879646, Final residual = 0.000695493, No Iterations 6
ExecutionTime = 1.14 s  ClockTime = 1 s

scalarTransport execute: age
smoothSolver:  Solving for age, Initial residual = 0.0105759, Final residual = 0.00100357, No Iterations 14

Time = 85

smoothSolver:  Solving for Ux, Initial residual = 0.010453, Final residual = 0.000737402, No Iterations 6
smoothSolver:  Solving for Uy, Initial residual = 0.00630671, Final residual = 0.000475669, No Iterations 6
GAMG:  Solving for p, Initial residual = 0.00768945, Final residual = 0.000467212, No Iterations 2
time step continuity errors : sum local = 0.00106778, global = 0.000101966, cumulative = 0.0154641
smoothSolver:  Solving for omega, Initial residual = 0.000708936, Final residual = 5.33835e-05, No Iterations 5
smoothSolver:  Solving for k, Initial residual = 0.00858292, Final residual = 0.000677918, No Iterations 6
ExecutionTime = 1.15 s  ClockTime = 1 s

scalarTransport execute: age
smoothSolver:  Solving for age, Initial residual = 0.0103246, Final residual = 0.00101846, No Iterations 14

Time = 86

smoothSolver:  Solving for Ux, Initial residual = 0.0102904, Final residual = 0.00072584, No Iterations 6
smoothSolver:  Solving for Uy, Initial residual = 0.00615914, Final residual = 0.000463088, No Iterations 6
GAMG:  Solving for p, Initial residual = 0.00759863, Final residual = 0.000462855, No Iterations 2
time step continuity errors : sum local = 0.00105152, global = 0.000114365, cumulative = 0.0155784
smoothSolver:  Solving for omega, Initial residual = 0.000690918, Final residual = 5.17309e-05, No Iterations 5
smoothSolver:  Solving for k, Initial residual = 0.00837193, Final residual = 0.000660565, No Iterations 6
ExecutionTime = 1.16 s  ClockTime = 1 s

scalarTransport execute: age
smoothSolver:  Solving for age, Initial residual = 0.010247, Final residual = 0.000903677, No Iterations 15

Time = 87

smoothSolver:  Solving for Ux, Initial residual = 0.010096, Final residual = 0.000711708, No Iterations 6
smoothSolver:  Solving for Uy, Initial residual = 0.00601365, Final residual = 0.000450574, No Iterations 6
GAMG:  Solving for p, Initial residual = 0.00751904, Final residual = 0.000452002, No Iterations 2
time step continuity errors : sum local = 0.00102173, global = 0.000110914, cumulative = 0.0156893
smoothSolver:  Solving for omega, Initial residual = 0.000678707, Final residual = 5.01418e-05, No Iterations 5
smoothSolver:  Solving for k, Initial residual = 0.00816307, Final residual = 0.000643432, No Iterations 6
ExecutionTime = 1.18 s  ClockTime = 1 s

scalarTransport execute: age
smoothSolver:  Solving for age, Initial residual = 0.0102162, Final residual = 0.000908281, No Iterations 15

Time = 88

smoothSolver:  Solving for Ux, Initial residual = 0.00992811, Final residual = 0.000699779, No Iterations 6
smoothSolver:  Solving for Uy, Initial residual = 0.00583068, Final residual = 0.000434929, No Iterations 6
GAMG:  Solving for p, Initial residual = 0.00737377, Final residual = 0.000433706, No Iterations 2
time step continuity errors : sum local = 0.000974793, global = 0.000110091, cumulative = 0.0157994
smoothSolver:  Solving for omega, Initial residual = 0.000662006, Final residual = 4.86065e-05, No Iterations 5
smoothSolver:  Solving for k, Initial residual = 0.00795646, Final residual = 0.000626534, No Iterations 6
ExecutionTime = 1.19 s  ClockTime = 1 s

scalarTransport execute: age
smoothSolver:  Solving for age, Initial residual = 0.0101807, Final residual = 0.000898143, No Iterations 15

Time = 89

smoothSolver:  Solving for Ux, Initial residual = 0.00974141, Final residual = 0.000686511, No Iterations 6
smoothSolver:  Solving for Uy, Initial residual = 0.00566131, Final residual = 0.000420627, No Iterations 6
GAMG:  Solving for p, Initial residual = 0.00725328, Final residual = 0.000425542, No Iterations 2
time step continuity errors : sum local = 0.000951638, global = 0.000109308, cumulative = 0.0159087
smoothSolver:  Solving for omega, Initial residual = 0.000644841, Final residual = 4.70156e-05, No Iterations 5
smoothSolver:  Solving for k, Initial residual = 0.00775154, Final residual = 0.000609907, No Iterations 6
ExecutionTime = 1.2 s  ClockTime = 1 s

scalarTransport execute: age
smoothSolver:  Solving for age, Initial residual = 0.0101367, Final residual = 0.000898915, No Iterations 15

Time = 90

smoothSolver:  Solving for Ux, Initial residual = 0.00953726, Final residual = 0.000671851, No Iterations 6
smoothSolver:  Solving for Uy, Initial residual = 0.00548896, Final residual = 0.000406041, No Iterations 6
GAMG:  Solving for p, Initial residual = 0.00715061, Final residual = 0.000423493, No Iterations 2
time step continuity errors : sum local = 0.000942653, global = 0.000108307, cumulative = 0.0160171
smoothSolver:  Solving for omega, Initial residual = 0.000625689, Final residual = 4.53982e-05, No Iterations 5
smoothSolver:  Solving for k, Initial residual = 0.00754928, Final residual = 0.000593539, No Iterations 6
ExecutionTime = 1.22 s  ClockTime = 1 s

scalarTransport execute: age
smoothSolver:  Solving for age, Initial residual = 0.0100091, Final residual = 0.000886556, No Iterations 15

Time = 91

smoothSolver:  Solving for Ux, Initial residual = 0.00931984, Final residual = 0.000656334, No Iterations 6
smoothSolver:  Solving for Uy, Initial residual = 0.00530953, Final residual = 0.000390744, No Iterations 6
GAMG:  Solving for p, Initial residual = 0.00704274, Final residual = 0.00042268, No Iterations 2
time step continuity errors : sum local = 0.0009369, global = 0.000107521, cumulative = 0.0161246
smoothSolver:  Solving for omega, Initial residual = 0.000610598, Final residual = 4.40368e-05, No Iterations 5
smoothSolver:  Solving for k, Initial residual = 0.00734836, Final residual = 0.000577342, No Iterations 6
ExecutionTime = 1.23 s  ClockTime = 1 s

scalarTransport execute: age
smoothSolver:  Solving for age, Initial residual = 0.00973175, Final residual = 0.000857633, No Iterations 15

Time = 92

smoothSolver:  Solving for Ux, Initial residual = 0.00909376, Final residual = 0.000640281, No Iterations 6
smoothSolver:  Solving for Uy, Initial residual = 0.00512956, Final residual = 0.000375208, No Iterations 6
GAMG:  Solving for p, Initial residual = 0.00692378, Final residual = 0.000420855, No Iterations 2
time step continuity errors : sum local = 0.000928831, global = 0.000106694, cumulative = 0.0162313
smoothSolver:  Solving for omega, Initial residual = 0.000596097, Final residual = 4.27274e-05, No Iterations 5
smoothSolver:  Solving for k, Initial residual = 0.00714961, Final residual = 0.000561332, No Iterations 6
ExecutionTime = 1.24 s  ClockTime = 1 s

scalarTransport execute: age
smoothSolver:  Solving for age, Initial residual = 0.00931609, Final residual = 0.000912733, No Iterations 14

Time = 93

smoothSolver:  Solving for Ux, Initial residual = 0.00885988, Final residual = 0.000623754, No Iterations 6
smoothSolver:  Solving for Uy, Initial residual = 0.00495094, Final residual = 0.00035969, No Iterations 6
GAMG:  Solving for p, Initial residual = 0.00678556, Final residual = 0.000417586, No Iterations 2
time step continuity errors : sum local = 0.000917808, global = 0.000106168, cumulative = 0.0163374
smoothSolver:  Solving for omega, Initial residual = 0.000580536, Final residual = 4.14518e-05, No Iterations 5
smoothSolver:  Solving for k, Initial residual = 0.00695251, Final residual = 0.000545514, No Iterations 6
ExecutionTime = 1.26 s  ClockTime = 1 s

scalarTransport execute: age
smoothSolver:  Solving for age, Initial residual = 0.00894187, Final residual = 0.000833636, No Iterations 14

Time = 94

smoothSolver:  Solving for Ux, Initial residual = 0.00862056, Final residual = 0.000606836, No Iterations 6
smoothSolver:  Solving for Uy, Initial residual = 0.00477294, Final residual = 0.000344251, No Iterations 6
GAMG:  Solving for p, Initial residual = 0.00664184, Final residual = 0.00041295, No Iterations 2
time step continuity errors : sum local = 0.000904417, global = 0.000105882, cumulative = 0.0164433
smoothSolver:  Solving for omega, Initial residual = 0.000565644, Final residual = 4.02367e-05, No Iterations 5
smoothSolver:  Solving for k, Initial residual = 0.0067578, Final residual = 0.000529902, No Iterations 6
ExecutionTime = 1.27 s  ClockTime = 1 s

scalarTransport execute: age
smoothSolver:  Solving for age, Initial residual = 0.00861548, Final residual = 0.0007655, No Iterations 14

Time = 95

smoothSolver:  Solving for Ux, Initial residual = 0.00837459, Final residual = 0.000589344, No Iterations 6
smoothSolver:  Solving for Uy, Initial residual = 0.00459836, Final residual = 0.000328961, No Iterations 6
GAMG:  Solving for p, Initial residual = 0.00649408, Final residual = 0.000406257, No Iterations 2
time step continuity errors : sum local = 0.000887081, global = 0.000105813, cumulative = 0.0165491
smoothSolver:  Solving for omega, Initial residual = 0.000550914, Final residual = 3.90758e-05, No Iterations 5
smoothSolver:  Solving for k, Initial residual = 0.00656537, Final residual = 0.000514463, No Iterations 6
ExecutionTime = 1.28 s  ClockTime = 1 s

scalarTransport execute: age
smoothSolver:  Solving for age, Initial residual = 0.00822543, Final residual = 0.000796785, No Iterations 13

Time = 96

smoothSolver:  Solving for Ux, Initial residual = 0.00811896, Final residual = 0.000571366, No Iterations 6
[...]

Time = 481

smoothSolver:  Solving for Ux, Initial residual = 9.36426e-07, Final residual = 8.47299e-08, No Iterations 5
smoothSolver:  Solving for Uy, Initial residual = 6.63248e-07, Final residual = 5.87814e-08, No Iterations 5
GAMG:  Solving for p, Initial residual = 2.62262e-06, Final residual = 1.34592e-07, No Iterations 2
time step continuity errors : sum local = 2.91803e-07, global = 6.77904e-09, cumulative = 0.0214133
smoothSolver:  Solving for omega, Initial residual = 1.03876e-07, Final residual = 1.02821e-08, No Iterations 4
smoothSolver:  Solving for k, Initial residual = 2.86502e-07, Final residual = 2.82808e-08, No Iterations 5
ExecutionTime = 6.11 s  ClockTime = 6 s

scalarTransport execute: age
smoothSolver:  Solving for age, Initial residual = 0.000343515, Final residual = 3.15989e-05, No Iterations 15

Time = 482

smoothSolver:  Solving for Ux, Initial residual = 8.97287e-07, Final residual = 8.11238e-08, No Iterations 5
smoothSolver:  Solving for Uy, Initial residual = 6.36708e-07, Final residual = 5.64126e-08, No Iterations 5
GAMG:  Solving for p, Initial residual = 2.52393e-06, Final residual = 1.29703e-07, No Iterations 2
time step continuity errors : sum local = 2.81203e-07, global = 6.55072e-09, cumulative = 0.0214133
smoothSolver:  Solving for omega, Initial residual = 9.9878e-08, Final residual = 9.91407e-09, No Iterations 4
smoothSolver:  Solving for k, Initial residual = 2.79997e-07, Final residual = 2.77779e-08, No Iterations 5
ExecutionTime = 6.12 s  ClockTime = 6 s

scalarTransport execute: age
smoothSolver:  Solving for age, Initial residual = 0.000342675, Final residual = 3.15221e-05, No Iterations 15

Time = 483

smoothSolver:  Solving for Ux, Initial residual = 8.59096e-07, Final residual = 7.75971e-08, No Iterations 5
smoothSolver:  Solving for Uy, Initial residual = 6.10928e-07, Final residual = 5.40986e-08, No Iterations 5
GAMG:  Solving for p, Initial residual = 2.42448e-06, Final residual = 1.2444e-07, No Iterations 2
time step continuity errors : sum local = 2.69793e-07, global = 6.41857e-09, cumulative = 0.0214133
smoothSolver:  Solving for omega, Initial residual = 9.61772e-08, Final residual = 9.55634e-09, No Iterations 4
smoothSolver:  Solving for k, Initial residual = 2.73737e-07, Final residual = 2.72957e-08, No Iterations 5
ExecutionTime = 6.13 s  ClockTime = 6 s

scalarTransport execute: age
smoothSolver:  Solving for age, Initial residual = 0.000341839, Final residual = 3.14458e-05, No Iterations 15

Time = 484

smoothSolver:  Solving for Ux, Initial residual = 8.21551e-07, Final residual = 7.41458e-08, No Iterations 5
smoothSolver:  Solving for Uy, Initial residual = 5.86226e-07, Final residual = 5.18938e-08, No Iterations 5
GAMG:  Solving for p, Initial residual = 2.32891e-06, Final residual = 1.1816e-07, No Iterations 2
time step continuity errors : sum local = 2.56178e-07, global = 4.65608e-09, cumulative = 0.0214133
smoothSolver:  Solving for omega, Initial residual = 9.30312e-08, Final residual = 9.21357e-09, No Iterations 4
smoothSolver:  Solving for k, Initial residual = 2.67794e-07, Final residual = 1.72145e-08, No Iterations 6
ExecutionTime = 6.15 s  ClockTime = 6 s

scalarTransport execute: age
smoothSolver:  Solving for age, Initial residual = 0.000341006, Final residual = 3.13698e-05, No Iterations 15

Time = 485

smoothSolver:  Solving for Ux, Initial residual = 7.83384e-07, Final residual = 7.05632e-08, No Iterations 5
smoothSolver:  Solving for Uy, Initial residual = 5.62073e-07, Final residual = 4.97282e-08, No Iterations 5
GAMG:  Solving for p, Initial residual = 2.23892e-06, Final residual = 1.14502e-07, No Iterations 2
time step continuity errors : sum local = 2.48247e-07, global = 5.29221e-09, cumulative = 0.0214133
smoothSolver:  Solving for omega, Initial residual = 8.89355e-08, Final residual = 8.8889e-09, No Iterations 4
smoothSolver:  Solving for k, Initial residual = 2.61534e-07, Final residual = 1.69242e-08, No Iterations 6
ExecutionTime = 6.16 s  ClockTime = 6 s

scalarTransport execute: age
smoothSolver:  Solving for age, Initial residual = 0.000340177, Final residual = 3.12944e-05, No Iterations 15

Time = 486

smoothSolver:  Solving for Ux, Initial residual = 7.47264e-07, Final residual = 6.72459e-08, No Iterations 5
smoothSolver:  Solving for Uy, Initial residual = 5.40134e-07, Final residual = 4.78595e-08, No Iterations 5
GAMG:  Solving for p, Initial residual = 2.15489e-06, Final residual = 1.11082e-07, No Iterations 2
time step continuity errors : sum local = 2.40833e-07, global = 5.53609e-09, cumulative = 0.0214133
smoothSolver:  Solving for omega, Initial residual = 8.59988e-08, Final residual = 8.56563e-09, No Iterations 4
smoothSolver:  Solving for k, Initial residual = 2.55697e-07, Final residual = 1.66527e-08, No Iterations 6
ExecutionTime = 6.17 s  ClockTime = 6 s

scalarTransport execute: age
smoothSolver:  Solving for age, Initial residual = 0.000339352, Final residual = 3.12193e-05, No Iterations 15

Time = 487

smoothSolver:  Solving for Ux, Initial residual = 7.12879e-07, Final residual = 6.40602e-08, No Iterations 5
smoothSolver:  Solving for Uy, Initial residual = 5.17389e-07, Final residual = 4.58146e-08, No Iterations 5
GAMG:  Solving for p, Initial residual = 2.06828e-06, Final residual = 1.06936e-07, No Iterations 2
time step continuity errors : sum local = 2.31844e-07, global = 5.7732e-09, cumulative = 0.0214133
smoothSolver:  Solving for omega, Initial residual = 8.26903e-08, Final residual = 8.25102e-09, No Iterations 4
smoothSolver:  Solving for k, Initial residual = 2.50097e-07, Final residual = 1.63947e-08, No Iterations 6
ExecutionTime = 6.18 s  ClockTime = 6 s

scalarTransport execute: age
smoothSolver:  Solving for age, Initial residual = 0.000338529, Final residual = 3.11447e-05, No Iterations 15

Time = 488

smoothSolver:  Solving for Ux, Initial residual = 6.79551e-07, Final residual = 6.09714e-08, No Iterations 5
smoothSolver:  Solving for Uy, Initial residual = 4.95147e-07, Final residual = 4.38066e-08, No Iterations 5
GAMG:  Solving for p, Initial residual = 1.98096e-06, Final residual = 1.02356e-07, No Iterations 2
time step continuity errors : sum local = 2.21914e-07, global = 5.37095e-09, cumulative = 0.0214133
smoothSolver:  Solving for omega, Initial residual = 7.96956e-08, Final residual = 7.94314e-09, No Iterations 4
smoothSolver:  Solving for k, Initial residual = 2.44842e-07, Final residual = 1.61483e-08, No Iterations 6
ExecutionTime = 6.2 s  ClockTime = 6 s

scalarTransport execute: age
smoothSolver:  Solving for age, Initial residual = 0.000337709, Final residual = 3.10705e-05, No Iterations 15

Time = 489

smoothSolver:  Solving for Ux, Initial residual = 6.4708e-07, Final residual = 5.79679e-08, No Iterations 5
smoothSolver:  Solving for Uy, Initial residual = 4.73726e-07, Final residual = 4.18826e-08, No Iterations 5
GAMG:  Solving for p, Initial residual = 1.89768e-06, Final residual = 9.68454e-08, No Iterations 2
time step continuity errors : sum local = 2.09967e-07, global = 3.72345e-09, cumulative = 0.0214133
smoothSolver:  Solving for omega, Initial residual = 7.67903e-08, Final residual = 7.64579e-09, No Iterations 4
smoothSolver:  Solving for k, Initial residual = 2.39975e-07, Final residual = 1.59155e-08, No Iterations 6
ExecutionTime = 6.21 s  ClockTime = 6 s

scalarTransport execute: age
smoothSolver:  Solving for age, Initial residual = 0.000336892, Final residual = 3.09966e-05, No Iterations 15

Time = 490

smoothSolver:  Solving for Ux, Initial residual = 6.14788e-07, Final residual = 5.49426e-08, No Iterations 5
smoothSolver:  Solving for Uy, Initial residual = 4.52573e-07, Final residual = 3.9971e-08, No Iterations 5
GAMG:  Solving for p, Initial residual = 1.81796e-06, Final residual = 9.34813e-08, No Iterations 2
time step continuity errors : sum local = 2.02673e-07, global = 3.97276e-09, cumulative = 0.0214133
smoothSolver:  Solving for omega, Initial residual = 7.3107e-08, Final residual = 7.35126e-09, No Iterations 4
smoothSolver:  Solving for k, Initial residual = 2.35275e-07, Final residual = 1.56902e-08, No Iterations 6
ExecutionTime = 6.22 s  ClockTime = 6 s

scalarTransport execute: age
smoothSolver:  Solving for age, Initial residual = 0.00033608, Final residual = 3.09231e-05, No Iterations 15

Time = 491

smoothSolver:  Solving for Ux, Initial residual = 5.84005e-07, Final residual = 5.21151e-08, No Iterations 5
smoothSolver:  Solving for Uy, Initial residual = 4.33736e-07, Final residual = 3.83536e-08, No Iterations 5
GAMG:  Solving for p, Initial residual = 1.74515e-06, Final residual = 9.03856e-08, No Iterations 2
time step continuity errors : sum local = 1.95961e-07, global = 3.91746e-09, cumulative = 0.0214133
smoothSolver:  Solving for omega, Initial residual = 7.04282e-08, Final residual = 7.06236e-09, No Iterations 4
smoothSolver:  Solving for k, Initial residual = 2.30943e-07, Final residual = 1.54742e-08, No Iterations 6
ExecutionTime = 6.23 s  ClockTime = 6 s

scalarTransport execute: age
smoothSolver:  Solving for age, Initial residual = 0.000335271, Final residual = 3.085e-05, No Iterations 15

Time = 492

smoothSolver:  Solving for Ux, Initial residual = 5.54687e-07, Final residual = 4.94007e-08, No Iterations 5
smoothSolver:  Solving for Uy, Initial residual = 4.14244e-07, Final residual = 3.66032e-08, No Iterations 5
GAMG:  Solving for p, Initial residual = 1.67178e-06, Final residual = 8.68303e-08, No Iterations 2
time step continuity errors : sum local = 1.88253e-07, global = 3.87032e-09, cumulative = 0.0214133
smoothSolver:  Solving for omega, Initial residual = 6.75158e-08, Final residual = 6.78377e-09, No Iterations 4
smoothSolver:  Solving for k, Initial residual = 2.26785e-07, Final residual = 1.52651e-08, No Iterations 6
ExecutionTime = 6.25 s  ClockTime = 6 s

scalarTransport execute: age
smoothSolver:  Solving for age, Initial residual = 0.000334464, Final residual = 3.07772e-05, No Iterations 15

Time = 493

smoothSolver:  Solving for Ux, Initial residual = 5.26298e-07, Final residual = 4.67709e-08, No Iterations 5
smoothSolver:  Solving for Uy, Initial residual = 3.95185e-07, Final residual = 3.48802e-08, No Iterations 5
GAMG:  Solving for p, Initial residual = 1.59798e-06, Final residual = 8.30261e-08, No Iterations 2
time step continuity errors : sum local = 1.80006e-07, global = 3.85058e-09, cumulative = 0.0214133
smoothSolver:  Solving for omega, Initial residual = 6.47536e-08, Final residual = 6.51233e-09, No Iterations 4
smoothSolver:  Solving for k, Initial residual = 2.22835e-07, Final residual = 1.50625e-08, No Iterations 6
ExecutionTime = 6.26 s  ClockTime = 6 s

scalarTransport execute: age
smoothSolver:  Solving for age, Initial residual = 0.000333661, Final residual = 3.07047e-05, No Iterations 15

Time = 494

smoothSolver:  Solving for Ux, Initial residual = 4.98643e-07, Final residual = 4.42169e-08, No Iterations 5
smoothSolver:  Solving for Uy, Initial residual = 3.77e-07, Final residual = 3.32388e-08, No Iterations 5
GAMG:  Solving for p, Initial residual = 1.52692e-06, Final residual = 7.92995e-08, No Iterations 2
time step continuity errors : sum local = 1.71926e-07, global = 3.80161e-09, cumulative = 0.0214133
smoothSolver:  Solving for omega, Initial residual = 6.20872e-08, Final residual = 6.2483e-09, No Iterations 4
smoothSolver:  Solving for k, Initial residual = 2.19054e-07, Final residual = 1.48651e-08, No Iterations 6
ExecutionTime = 6.27 s  ClockTime = 6 s

scalarTransport execute: age
smoothSolver:  Solving for age, Initial residual = 0.000332862, Final residual = 3.06326e-05, No Iterations 15

Time = 495

smoothSolver:  Solving for Ux, Initial residual = 4.71916e-07, Final residual = 4.17412e-08, No Iterations 5
smoothSolver:  Solving for Uy, Initial residual = 3.59539e-07, Final residual = 3.16653e-08, No Iterations 5
GAMG:  Solving for p, Initial residual = 1.45909e-06, Final residual = 7.57795e-08, No Iterations 2
time step continuity errors : sum local = 1.64295e-07, global = 3.75503e-09, cumulative = 0.0214133
smoothSolver:  Solving for omega, Initial residual = 5.94521e-08, Final residual = 5.99187e-09, No Iterations 4
smoothSolver:  Solving for k, Initial residual = 2.1544e-07, Final residual = 1.46717e-08, No Iterations 6
ExecutionTime = 6.28 s  ClockTime = 6 s

scalarTransport execute: age
smoothSolver:  Solving for age, Initial residual = 0.000332067, Final residual = 3.05607e-05, No Iterations 15

Time = 496

smoothSolver:  Solving for Ux, Initial residual = 4.4604e-07, Final residual = 3.93459e-08, No Iterations 5
smoothSolver:  Solving for Uy, Initial residual = 3.42558e-07, Final residual = 3.01421e-08, No Iterations 5
GAMG:  Solving for p, Initial residual = 1.39411e-06, Final residual = 7.24538e-08, No Iterations 2
time step continuity errors : sum local = 1.57085e-07, global = 3.68356e-09, cumulative = 0.0214133
smoothSolver:  Solving for omega, Initial residual = 5.69167e-08, Final residual = 9.65541e-09, No Iterations 3
smoothSolver:  Solving for k, Initial residual = 2.12101e-07, Final residual = 1.4488e-08, No Iterations 6
ExecutionTime = 6.3 s  ClockTime = 6 s

scalarTransport execute: age
smoothSolver:  Solving for age, Initial residual = 0.000331276, Final residual = 3.04892e-05, No Iterations 15

Time = 497

smoothSolver:  Solving for Ux, Initial residual = 4.20603e-07, Final residual = 3.69818e-08, No Iterations 5
smoothSolver:  Solving for Uy, Initial residual = 3.26206e-07, Final residual = 2.86778e-08, No Iterations 5
GAMG:  Solving for p, Initial residual = 1.33212e-06, Final residual = 6.92749e-08, No Iterations 2
time step continuity errors : sum local = 1.50192e-07, global = 3.5833e-09, cumulative = 0.0214133
smoothSolver:  Solving for omega, Initial residual = 5.55089e-08, Final residual = 9.45557e-09, No Iterations 3
smoothSolver:  Solving for k, Initial residual = 2.08895e-07, Final residual = 1.43098e-08, No Iterations 6
ExecutionTime = 6.31 s  ClockTime = 6 s

scalarTransport execute: age
smoothSolver:  Solving for age, Initial residual = 0.000330489, Final residual = 3.04179e-05, No Iterations 15

Time = 498

smoothSolver:  Solving for Ux, Initial residual = 3.9609e-07, Final residual = 3.47097e-08, No Iterations 5
smoothSolver:  Solving for Uy, Initial residual = 3.10187e-07, Final residual = 2.72397e-08, No Iterations 5
GAMG:  Solving for p, Initial residual = 1.27184e-06, Final residual = 6.61793e-08, No Iterations 2
time step continuity errors : sum local = 1.43481e-07, global = 3.43625e-09, cumulative = 0.0214133
smoothSolver:  Solving for omega, Initial residual = 5.38818e-08, Final residual = 9.21135e-09, No Iterations 3
smoothSolver:  Solving for k, Initial residual = 2.05729e-07, Final residual = 1.41318e-08, No Iterations 6
ExecutionTime = 6.32 s  ClockTime = 6 s

scalarTransport execute: age
smoothSolver:  Solving for age, Initial residual = 0.000329706, Final residual = 3.0347e-05, No Iterations 15

Time = 499

smoothSolver:  Solving for Ux, Initial residual = 3.72505e-07, Final residual = 3.25246e-08, No Iterations 5
smoothSolver:  Solving for Uy, Initial residual = 2.94623e-07, Final residual = 2.58408e-08, No Iterations 5
GAMG:  Solving for p, Initial residual = 1.21309e-06, Final residual = 6.3173e-08, No Iterations 2
time step continuity errors : sum local = 1.36963e-07, global = 3.23615e-09, cumulative = 0.0214133
smoothSolver:  Solving for omega, Initial residual = 5.21109e-08, Final residual = 8.94062e-09, No Iterations 3
smoothSolver:  Solving for k, Initial residual = 2.0262e-07, Final residual = 1.39545e-08, No Iterations 6
ExecutionTime = 6.33 s  ClockTime = 6 s

scalarTransport execute: age
smoothSolver:  Solving for age, Initial residual = 0.000328926, Final residual = 3.02764e-05, No Iterations 15

Time = 500

smoothSolver:  Solving for Ux, Initial residual = 3.49888e-07, Final residual = 3.04267e-08, No Iterations 5
smoothSolver:  Solving for Uy, Initial residual = 2.79565e-07, Final residual = 2.44886e-08, No Iterations 5
GAMG:  Solving for p, Initial residual = 1.15629e-06, Final residual = 6.02675e-08, No Iterations 2
time step continuity errors : sum local = 1.30664e-07, global = 2.97706e-09, cumulative = 0.0214133
smoothSolver:  Solving for omega, Initial residual = 5.02895e-08, Final residual = 8.65233e-09, No Iterations 3
smoothSolver:  Solving for k, Initial residual = 1.99605e-07, Final residual = 1.37781e-08, No Iterations 6
ExecutionTime = 6.35 s  ClockTime = 6 s

scalarTransport execute: age
smoothSolver:  Solving for age, Initial residual = 0.000328149, Final residual = 3.0206e-05, No Iterations 15

Time = 501

smoothSolver:  Solving for Ux, Initial residual = 3.28248e-07, Final residual = 2.84228e-08, No Iterations 5
smoothSolver:  Solving for Uy, Initial residual = 2.6503e-07, Final residual = 2.31838e-08, No Iterations 5
GAMG:  Solving for p, Initial residual = 1.1019e-06, Final residual = 5.74756e-08, No Iterations 2
time step continuity errors : sum local = 1.24611e-07, global = 2.65939e-09, cumulative = 0.0214133
smoothSolver:  Solving for omega, Initial residual = 4.84193e-08, Final residual = 8.35259e-09, No Iterations 3
smoothSolver:  Solving for k, Initial residual = 1.96688e-07, Final residual = 1.3603e-08, No Iterations 6
ExecutionTime = 6.36 s  ClockTime = 6 s

scalarTransport execute: age
smoothSolver:  Solving for age, Initial residual = 0.000327376, Final residual = 3.01359e-05, No Iterations 15

Time = 502

smoothSolver:  Solving for Ux, Initial residual = 3.07681e-07, Final residual = 2.65362e-08, No Iterations 5
smoothSolver:  Solving for Uy, Initial residual = 2.5096e-07, Final residual = 2.19258e-08, No Iterations 5
GAMG:  Solving for p, Initial residual = 1.05025e-06, Final residual = 5.4797e-08, No Iterations 2
time step continuity errors : sum local = 1.18804e-07, global = 2.28424e-09, cumulative = 0.0214133
smoothSolver:  Solving for omega, Initial residual = 4.65375e-08, Final residual = 8.04622e-09, No Iterations 3
smoothSolver:  Solving for k, Initial residual = 1.93912e-07, Final residual = 1.34293e-08, No Iterations 6
ExecutionTime = 6.37 s  ClockTime = 6 s

scalarTransport execute: age
smoothSolver:  Solving for age, Initial residual = 0.000326606, Final residual = 3.00659e-05, No Iterations 15

Time = 503

smoothSolver:  Solving for Ux, Initial residual = 2.88279e-07, Final residual = 2.47616e-08, No Iterations 5
smoothSolver:  Solving for Uy, Initial residual = 2.37351e-07, Final residual = 2.07126e-08, No Iterations 5
GAMG:  Solving for p, Initial residual = 1.00048e-06, Final residual = 5.22272e-08, No Iterations 2
time step continuity errors : sum local = 1.13232e-07, global = 1.85549e-09, cumulative = 0.0214133
smoothSolver:  Solving for omega, Initial residual = 4.46675e-08, Final residual = 7.7366e-09, No Iterations 3
smoothSolver:  Solving for k, Initial residual = 1.9125e-07, Final residual = 1.32568e-08, No Iterations 6
ExecutionTime = 6.38 s  ClockTime = 6 s

scalarTransport execute: age
smoothSolver:  Solving for age, Initial residual = 0.000325839, Final residual = 2.9996e-05, No Iterations 15

Time = 504

smoothSolver:  Solving for Ux, Initial residual = 2.69964e-07, Final residual = 2.30907e-08, No Iterations 5
smoothSolver:  Solving for Uy, Initial residual = 2.24225e-07, Final residual = 1.95439e-08, No Iterations 5
GAMG:  Solving for p, Initial residual = 9.52506e-07, Final residual = 4.97604e-08, No Iterations 2
time step continuity errors : sum local = 1.07884e-07, global = 1.37758e-09, cumulative = 0.0214133
smoothSolver:  Solving for omega, Initial residual = 4.28197e-08, Final residual = 7.4263e-09, No Iterations 3
smoothSolver:  Solving for k, Initial residual = 1.88684e-07, Final residual = 1.30851e-08, No Iterations 6
ExecutionTime = 6.4 s  ClockTime = 6 s


SIMPLE solution converged in 504 iterations

scalarTransport execute: age
smoothSolver:  Solving for age, Initial residual = 0.000325075, Final residual = 2.99262e-05, No Iterations 15

End

