/*---------------------------------------------------------------------------*\
| =========                 |                                                 |
| \\      /  F ield         | OpenFOAM: The Open Source CFD Toolbox           |
|  \\    /   O peration     | Version:  v2012                                 |
|   \\  /    A nd           | Website:  www.openfoam.com                      |
|    \\/     M anipulation  |                                                 |
\*---------------------------------------------------------------------------*/
Build  : _7bdb509494-20201222 OPENFOAM=2012
Arch   : "LSB;label=32;scalar=64"
Exec   : simpleFoam
Date   : Feb 23 2023
Time   : 01:55:29
Host   : johnsDesktop
PID    : 18044
I/O    : uncollated
Case   : /home/john/of_runs/cases/0_52_3-00620_9
nProcs : 1
trapFpe: Floating point exception trapping enabled (FOAM_SIGFPE).
fileModificationChecking : Monitoring run-time modified files using timeStampMaster (fileModificationSkew 5, maxFileModificationPolls 20)
allowSystemOperations : Allowing user-supplied system call operations

// * * * * * * * * * * * * * * * * * * * * * * * * * * * * * * * * * * * * * //
Create time

Create mesh for time = 0


SIMPLE: convergence criteria
    field p	 tolerance 1e-06
    field U	 tolerance 1e-06
    field "(k|epsilon|omega|f|v2|age)"	 tolerance 1e-05

Reading field p

Reading field U

Reading/calculating face flux field phi

Selecting incompressible transport model Newtonian
Selecting turbulence model type RAS
Selecting RAS turbulence model kOmegaSST
Selecting patchDistMethod meshWave
RAS
{
    RASModel        kOmegaSST;
    turbulence      on;
    printCoeffs     on;
    alphaK1         0.85;
    alphaK2         1;
    alphaOmega1     0.5;
    alphaOmega2     0.856;
    gamma1          0.555556;
    gamma2          0.44;
    beta1           0.075;
    beta2           0.0828;
    betaStar        0.09;
    a1              0.31;
    b1              1;
    c1              10;
    F3              false;
    decayControl    false;
    kInf            0;
    omegaInf        0;
}

No MRF models present

No finite volume options present

Starting time loop

Selecting finite volume options type scalarSemiImplicitSource
    Source: unitySource
    - selecting all cells
    - selected 6057 cell(s) with volume 0.03174
Time = 1

smoothSolver:  Solving for Ux, Initial residual = 0, Final residual = 0, No Iterations 0
smoothSolver:  Solving for Uy, Initial residual = 1, Final residual = 0.0863756, No Iterations 2
GAMG:  Solving for p, Initial residual = 1, Final residual = 0.0543503, No Iterations 16
time step continuity errors : sum local = 0.00342472, global = -0.000444389, cumulative = -0.000444389
smoothSolver:  Solving for omega, Initial residual = 0.276509, Final residual = 0.0117743, No Iterations 3
smoothSolver:  Solving for k, Initial residual = 1, Final residual = 0.0785838, No Iterations 3
ExecutionTime = 0.05 s  ClockTime = 0 s

scalarTransport execute: age
smoothSolver:  Solving for age, Initial residual = 1, Final residual = 0.0898077, No Iterations 5

Time = 2

smoothSolver:  Solving for Ux, Initial residual = 0.534731, Final residual = 0.0453558, No Iterations 6
smoothSolver:  Solving for Uy, Initial residual = 0.274881, Final residual = 0.0200017, No Iterations 6
GAMG:  Solving for p, Initial residual = 0.0507024, Final residual = 0.00437848, No Iterations 4
time step continuity errors : sum local = 0.0514593, global = 0.00440473, cumulative = 0.00396035
smoothSolver:  Solving for omega, Initial residual = 0.252529, Final residual = 0.0240771, No Iterations 3
smoothSolver:  Solving for k, Initial residual = 0.602002, Final residual = 0.0561727, No Iterations 4
ExecutionTime = 0.06 s  ClockTime = 0 s

scalarTransport execute: age
smoothSolver:  Solving for age, Initial residual = 0.582062, Final residual = 0.0576746, No Iterations 5

Time = 3

smoothSolver:  Solving for Ux, Initial residual = 0.234256, Final residual = 0.017718, No Iterations 6
smoothSolver:  Solving for Uy, Initial residual = 0.0995155, Final residual = 0.00944423, No Iterations 5
GAMG:  Solving for p, Initial residual = 0.057594, Final residual = 0.00446517, No Iterations 7
time step continuity errors : sum local = 0.0256759, global = 0.00211869, cumulative = 0.00607904
smoothSolver:  Solving for omega, Initial residual = 0.239127, Final residual = 0.022931, No Iterations 4
smoothSolver:  Solving for k, Initial residual = 0.506921, Final residual = 0.0379547, No Iterations 5
ExecutionTime = 0.07 s  ClockTime = 0 s

scalarTransport execute: age
smoothSolver:  Solving for age, Initial residual = 0.414263, Final residual = 0.0395379, No Iterations 10

Time = 4

smoothSolver:  Solving for Ux, Initial residual = 0.112979, Final residual = 0.00900067, No Iterations 4
smoothSolver:  Solving for Uy, Initial residual = 0.0599428, Final residual = 0.0044757, No Iterations 5
GAMG:  Solving for p, Initial residual = 0.0953975, Final residual = 0.00625635, No Iterations 3
time step continuity errors : sum local = 0.0168862, global = 0.00125787, cumulative = 0.00733691
smoothSolver:  Solving for omega, Initial residual = 0.138727, Final residual = 0.00950987, No Iterations 5
smoothSolver:  Solving for k, Initial residual = 0.436243, Final residual = 0.0369952, No Iterations 5
ExecutionTime = 0.09 s  ClockTime = 0 s

scalarTransport execute: age
smoothSolver:  Solving for age, Initial residual = 0.265725, Final residual = 0.0219039, No Iterations 3

Time = 5

smoothSolver:  Solving for Ux, Initial residual = 0.0785124, Final residual = 0.00736985, No Iterations 5
smoothSolver:  Solving for Uy, Initial residual = 0.033216, Final residual = 0.00244541, No Iterations 5
GAMG:  Solving for p, Initial residual = 0.0843537, Final residual = 0.0041467, No Iterations 2
time step continuity errors : sum local = 0.00975918, global = 0.000946344, cumulative = 0.00828325
smoothSolver:  Solving for omega, Initial residual = 0.0961912, Final residual = 0.00728828, No Iterations 5
smoothSolver:  Solving for k, Initial residual = 0.341937, Final residual = 0.0314008, No Iterations 5
ExecutionTime = 0.1 s  ClockTime = 0 s

scalarTransport execute: age
smoothSolver:  Solving for age, Initial residual = 0.217864, Final residual = 0.0180912, No Iterations 3

Time = 6

smoothSolver:  Solving for Ux, Initial residual = 0.0604546, Final residual = 0.00452229, No Iterations 6
smoothSolver:  Solving for Uy, Initial residual = 0.0266753, Final residual = 0.00221934, No Iterations 5
GAMG:  Solving for p, Initial residual = 0.0673901, Final residual = 0.00464406, No Iterations 2
time step continuity errors : sum local = 0.0108202, global = 3.8728e-05, cumulative = 0.00832198
smoothSolver:  Solving for omega, Initial residual = 0.0746403, Final residual = 0.00608068, No Iterations 5
smoothSolver:  Solving for k, Initial residual = 0.273408, Final residual = 0.0266828, No Iterations 5
ExecutionTime = 0.11 s  ClockTime = 0 s

scalarTransport execute: age
smoothSolver:  Solving for age, Initial residual = 0.179037, Final residual = 0.0169139, No Iterations 3

Time = 7

smoothSolver:  Solving for Ux, Initial residual = 0.0522055, Final residual = 0.00397199, No Iterations 6
smoothSolver:  Solving for Uy, Initial residual = 0.0222283, Final residual = 0.00197414, No Iterations 5
GAMG:  Solving for p, Initial residual = 0.0541705, Final residual = 0.00409359, No Iterations 3
time step continuity errors : sum local = 0.00965151, global = -0.000355847, cumulative = 0.00796614
smoothSolver:  Solving for omega, Initial residual = 0.0561788, Final residual = 0.00490693, No Iterations 5
smoothSolver:  Solving for k, Initial residual = 0.22648, Final residual = 0.0146296, No Iterations 6
ExecutionTime = 0.12 s  ClockTime = 0 s

scalarTransport execute: age
smoothSolver:  Solving for age, Initial residual = 0.14719, Final residual = 0.0129048, No Iterations 3

Time = 8

smoothSolver:  Solving for Ux, Initial residual = 0.0351547, Final residual = 0.00314937, No Iterations 5
smoothSolver:  Solving for Uy, Initial residual = 0.0205461, Final residual = 0.00194204, No Iterations 5
GAMG:  Solving for p, Initial residual = 0.0420735, Final residual = 0.00378816, No Iterations 2
time step continuity errors : sum local = 0.00992702, global = -0.000537758, cumulative = 0.00742838
smoothSolver:  Solving for omega, Initial residual = 0.0456097, Final residual = 0.00411444, No Iterations 5
smoothSolver:  Solving for k, Initial residual = 0.193067, Final residual = 0.0129374, No Iterations 6
ExecutionTime = 0.13 s  ClockTime = 0 s

scalarTransport execute: age
smoothSolver:  Solving for age, Initial residual = 0.12862, Final residual = 0.010176, No Iterations 4

Time = 9

smoothSolver:  Solving for Ux, Initial residual = 0.0291456, Final residual = 0.00284284, No Iterations 5
smoothSolver:  Solving for Uy, Initial residual = 0.0195241, Final residual = 0.0018249, No Iterations 5
GAMG:  Solving for p, Initial residual = 0.0345887, Final residual = 0.00271518, No Iterations 2
time step continuity errors : sum local = 0.00754037, global = -0.000682347, cumulative = 0.00674603
smoothSolver:  Solving for omega, Initial residual = 0.0374376, Final residual = 0.00348595, No Iterations 5
smoothSolver:  Solving for k, Initial residual = 0.167635, Final residual = 0.01157, No Iterations 6
ExecutionTime = 0.14 s  ClockTime = 0 s

scalarTransport execute: age
smoothSolver:  Solving for age, Initial residual = 0.108446, Final residual = 0.0108307, No Iterations 3

Time = 10

smoothSolver:  Solving for Ux, Initial residual = 0.0275726, Final residual = 0.00182402, No Iterations 6
smoothSolver:  Solving for Uy, Initial residual = 0.0174463, Final residual = 0.00164276, No Iterations 5
GAMG:  Solving for p, Initial residual = 0.0287248, Final residual = 0.00134642, No Iterations 2
time step continuity errors : sum local = 0.00388712, global = -0.000522172, cumulative = 0.00622386
smoothSolver:  Solving for omega, Initial residual = 0.031365, Final residual = 0.00299305, No Iterations 5
smoothSolver:  Solving for k, Initial residual = 0.147702, Final residual = 0.0104539, No Iterations 6
ExecutionTime = 0.15 s  ClockTime = 0 s

scalarTransport execute: age
smoothSolver:  Solving for age, Initial residual = 0.0918045, Final residual = 0.00801076, No Iterations 3

Time = 11

smoothSolver:  Solving for Ux, Initial residual = 0.0260775, Final residual = 0.00178016, No Iterations 6
smoothSolver:  Solving for Uy, Initial residual = 0.0165281, Final residual = 0.0016398, No Iterations 5
GAMG:  Solving for p, Initial residual = 0.0249047, Final residual = 0.000916254, No Iterations 2
time step continuity errors : sum local = 0.00269741, global = -0.000383702, cumulative = 0.00584016
smoothSolver:  Solving for omega, Initial residual = 0.0263156, Final residual = 0.00257284, No Iterations 5
smoothSolver:  Solving for k, Initial residual = 0.131912, Final residual = 0.00952226, No Iterations 6
ExecutionTime = 0.17 s  ClockTime = 0 s

scalarTransport execute: age
smoothSolver:  Solving for age, Initial residual = 0.0789464, Final residual = 0.00694446, No Iterations 3

Time = 12

smoothSolver:  Solving for Ux, Initial residual = 0.0248185, Final residual = 0.00171693, No Iterations 6
smoothSolver:  Solving for Uy, Initial residual = 0.0160998, Final residual = 0.0010996, No Iterations 6
GAMG:  Solving for p, Initial residual = 0.0224332, Final residual = 0.0009253, No Iterations 2
time step continuity errors : sum local = 0.00274177, global = -0.000280263, cumulative = 0.00555989
smoothSolver:  Solving for omega, Initial residual = 0.0225402, Final residual = 0.00223553, No Iterations 5
smoothSolver:  Solving for k, Initial residual = 0.118973, Final residual = 0.00873182, No Iterations 6
ExecutionTime = 0.18 s  ClockTime = 0 s

scalarTransport execute: age
smoothSolver:  Solving for age, Initial residual = 0.0688718, Final residual = 0.00608492, No Iterations 3

Time = 13

smoothSolver:  Solving for Ux, Initial residual = 0.0239088, Final residual = 0.00167626, No Iterations 6
smoothSolver:  Solving for Uy, Initial residual = 0.0156056, Final residual = 0.00109432, No Iterations 6
GAMG:  Solving for p, Initial residual = 0.0208518, Final residual = 0.000953737, No Iterations 2
time step continuity errors : sum local = 0.00284298, global = -0.000172122, cumulative = 0.00538777
smoothSolver:  Solving for omega, Initial residual = 0.019453, Final residual = 0.00125, No Iterations 6
smoothSolver:  Solving for k, Initial residual = 0.107936, Final residual = 0.00803649, No Iterations 6
ExecutionTime = 0.19 s  ClockTime = 0 s

scalarTransport execute: age
smoothSolver:  Solving for age, Initial residual = 0.0613052, Final residual = 0.00565156, No Iterations 3

Time = 14

smoothSolver:  Solving for Ux, Initial residual = 0.0231107, Final residual = 0.00163558, No Iterations 6
smoothSolver:  Solving for Uy, Initial residual = 0.01535, Final residual = 0.0010945, No Iterations 6
GAMG:  Solving for p, Initial residual = 0.0196686, Final residual = 0.000939182, No Iterations 2
time step continuity errors : sum local = 0.00280867, global = -6.93526e-05, cumulative = 0.00531842
smoothSolver:  Solving for omega, Initial residual = 0.0167855, Final residual = 0.00109334, No Iterations 6
smoothSolver:  Solving for k, Initial residual = 0.0984754, Final residual = 0.00742558, No Iterations 6
ExecutionTime = 0.2 s  ClockTime = 0 s

scalarTransport execute: age
smoothSolver:  Solving for age, Initial residual = 0.0556114, Final residual = 0.00541129, No Iterations 3

Time = 15

smoothSolver:  Solving for Ux, Initial residual = 0.0223929, Final residual = 0.00159437, No Iterations 6
smoothSolver:  Solving for Uy, Initial residual = 0.0151569, Final residual = 0.00109476, No Iterations 6
GAMG:  Solving for p, Initial residual = 0.0187922, Final residual = 0.00091107, No Iterations 2
time step continuity errors : sum local = 0.00272597, global = 3.49593e-05, cumulative = 0.00535338
smoothSolver:  Solving for omega, Initial residual = 0.0146205, Final residual = 0.000962771, No Iterations 6
smoothSolver:  Solving for k, Initial residual = 0.0904519, Final residual = 0.00689357, No Iterations 6
ExecutionTime = 0.21 s  ClockTime = 0 s

scalarTransport execute: age
smoothSolver:  Solving for age, Initial residual = 0.0510103, Final residual = 0.00496042, No Iterations 3

Time = 16

smoothSolver:  Solving for Ux, Initial residual = 0.0216908, Final residual = 0.0015507, No Iterations 6
smoothSolver:  Solving for Uy, Initial residual = 0.0150692, Final residual = 0.00109642, No Iterations 6
GAMG:  Solving for p, Initial residual = 0.0179399, Final residual = 0.000880924, No Iterations 2
time step continuity errors : sum local = 0.00263026, global = 0.000121801, cumulative = 0.00547518
smoothSolver:  Solving for omega, Initial residual = 0.0128718, Final residual = 0.000853484, No Iterations 6
smoothSolver:  Solving for k, Initial residual = 0.0835572, Final residual = 0.00642564, No Iterations 6
ExecutionTime = 0.22 s  ClockTime = 0 s

scalarTransport execute: age
smoothSolver:  Solving for age, Initial residual = 0.0466617, Final residual = 0.00362896, No Iterations 4

Time = 17

smoothSolver:  Solving for Ux, Initial residual = 0.0209628, Final residual = 0.00150646, No Iterations 6
smoothSolver:  Solving for Uy, Initial residual = 0.0149704, Final residual = 0.00109555, No Iterations 6
GAMG:  Solving for p, Initial residual = 0.0172217, Final residual = 0.000851712, No Iterations 2
time step continuity errors : sum local = 0.00253364, global = 0.000187468, cumulative = 0.00566265
smoothSolver:  Solving for omega, Initial residual = 0.0114258, Final residual = 0.000761378, No Iterations 6
smoothSolver:  Solving for k, Initial residual = 0.0775808, Final residual = 0.00601211, No Iterations 6
ExecutionTime = 0.23 s  ClockTime = 0 s

scalarTransport execute: age
smoothSolver:  Solving for age, Initial residual = 0.0424387, Final residual = 0.00345267, No Iterations 4

Time = 18

smoothSolver:  Solving for Ux, Initial residual = 0.0202699, Final residual = 0.00146215, No Iterations 6
smoothSolver:  Solving for Uy, Initial residual = 0.0148861, Final residual = 0.00109202, No Iterations 6
GAMG:  Solving for p, Initial residual = 0.0166272, Final residual = 0.000835469, No Iterations 2
time step continuity errors : sum local = 0.00247135, global = 0.000226347, cumulative = 0.005889
smoothSolver:  Solving for omega, Initial residual = 0.0102182, Final residual = 0.000683043, No Iterations 6
smoothSolver:  Solving for k, Initial residual = 0.0723487, Final residual = 0.00564368, No Iterations 6
ExecutionTime = 0.25 s  ClockTime = 0 s

scalarTransport execute: age
smoothSolver:  Solving for age, Initial residual = 0.0390563, Final residual = 0.00349009, No Iterations 4

Time = 19

smoothSolver:  Solving for Ux, Initial residual = 0.0196297, Final residual = 0.00142036, No Iterations 6
smoothSolver:  Solving for Uy, Initial residual = 0.0147656, Final residual = 0.00108753, No Iterations 6
GAMG:  Solving for p, Initial residual = 0.0161575, Final residual = 0.000831067, No Iterations 2
time step continuity errors : sum local = 0.00243578, global = 0.00024703, cumulative = 0.00613602
smoothSolver:  Solving for omega, Initial residual = 0.00919843, Final residual = 0.000616077, No Iterations 6
smoothSolver:  Solving for k, Initial residual = 0.0677233, Final residual = 0.00531279, No Iterations 6
ExecutionTime = 0.26 s  ClockTime = 0 s

scalarTransport execute: age
smoothSolver:  Solving for age, Initial residual = 0.0354669, Final residual = 0.0033004, No Iterations 4

Time = 20

smoothSolver:  Solving for Ux, Initial residual = 0.0190578, Final residual = 0.00138293, No Iterations 6
smoothSolver:  Solving for Uy, Initial residual = 0.0146518, Final residual = 0.00108402, No Iterations 6
GAMG:  Solving for p, Initial residual = 0.0156973, Final residual = 0.000827982, No Iterations 2
time step continuity errors : sum local = 0.00240088, global = 0.00025305, cumulative = 0.00638908
smoothSolver:  Solving for omega, Initial residual = 0.00831756, Final residual = 0.000558346, No Iterations 6
smoothSolver:  Solving for k, Initial residual = 0.0636175, Final residual = 0.00501472, No Iterations 6
ExecutionTime = 0.27 s  ClockTime = 0 s

scalarTransport execute: age
smoothSolver:  Solving for age, Initial residual = 0.0320189, Final residual = 0.00312239, No Iterations 4

Time = 21

smoothSolver:  Solving for Ux, Initial residual = 0.0185698, Final residual = 0.00135142, No Iterations 6
smoothSolver:  Solving for Uy, Initial residual = 0.0144909, Final residual = 0.00107853, No Iterations 6
GAMG:  Solving for p, Initial residual = 0.0151828, Final residual = 0.000830877, No Iterations 2
time step continuity errors : sum local = 0.00238476, global = 0.000248525, cumulative = 0.0066376
smoothSolver:  Solving for omega, Initial residual = 0.00755849, Final residual = 0.000508144, No Iterations 6
smoothSolver:  Solving for k, Initial residual = 0.0599387, Final residual = 0.00474442, No Iterations 6
ExecutionTime = 0.28 s  ClockTime = 0 s

scalarTransport execute: age
smoothSolver:  Solving for age, Initial residual = 0.0286165, Final residual = 0.00245232, No Iterations 5

Time = 22

smoothSolver:  Solving for Ux, Initial residual = 0.0181574, Final residual = 0.00132544, No Iterations 6
smoothSolver:  Solving for Uy, Initial residual = 0.0143207, Final residual = 0.00107043, No Iterations 6
GAMG:  Solving for p, Initial residual = 0.0146057, Final residual = 0.000836494, No Iterations 2
time step continuity errors : sum local = 0.00238109, global = 0.000236533, cumulative = 0.00687413
smoothSolver:  Solving for omega, Initial residual = 0.00690295, Final residual = 0.000464191, No Iterations 6
smoothSolver:  Solving for k, Initial residual = 0.0566233, Final residual = 0.00449816, No Iterations 6
ExecutionTime = 0.29 s  ClockTime = 0 s

scalarTransport execute: age
smoothSolver:  Solving for age, Initial residual = 0.0259743, Final residual = 0.00229243, No Iterations 5

Time = 23

smoothSolver:  Solving for Ux, Initial residual = 0.0177989, Final residual = 0.00130364, No Iterations 6
smoothSolver:  Solving for Uy, Initial residual = 0.0141169, Final residual = 0.00105996, No Iterations 6
GAMG:  Solving for p, Initial residual = 0.0139642, Final residual = 0.000841126, No Iterations 2
time step continuity errors : sum local = 0.00237727, global = 0.000220581, cumulative = 0.00709471
smoothSolver:  Solving for omega, Initial residual = 0.0063269, Final residual = 0.000425411, No Iterations 6
smoothSolver:  Solving for k, Initial residual = 0.0536176, Final residual = 0.00427276, No Iterations 6
ExecutionTime = 0.3 s  ClockTime = 0 s

scalarTransport execute: age
smoothSolver:  Solving for age, Initial residual = 0.0240845, Final residual = 0.002202, No Iterations 5

Time = 24

smoothSolver:  Solving for Ux, Initial residual = 0.0174693, Final residual = 0.00128513, No Iterations 6
smoothSolver:  Solving for Uy, Initial residual = 0.0139056, Final residual = 0.00104726, No Iterations 6
GAMG:  Solving for p, Initial residual = 0.0133815, Final residual = 0.000844066, No Iterations 2
time step continuity errors : sum local = 0.0023698, global = 0.000203152, cumulative = 0.00729787
smoothSolver:  Solving for omega, Initial residual = 0.00582161, Final residual = 0.000391112, No Iterations 6
smoothSolver:  Solving for k, Initial residual = 0.0508811, Final residual = 0.00406563, No Iterations 6
ExecutionTime = 0.32 s  ClockTime = 0 s

scalarTransport execute: age
smoothSolver:  Solving for age, Initial residual = 0.0228222, Final residual = 0.00215483, No Iterations 5

Time = 25

smoothSolver:  Solving for Ux, Initial residual = 0.0171829, Final residual = 0.00126927, No Iterations 6
smoothSolver:  Solving for Uy, Initial residual = 0.0137001, Final residual = 0.00103316, No Iterations 6
GAMG:  Solving for p, Initial residual = 0.0128319, Final residual = 0.000841539, No Iterations 2
time step continuity errors : sum local = 0.00234836, global = 0.000186485, cumulative = 0.00748435
smoothSolver:  Solving for omega, Initial residual = 0.00537131, Final residual = 0.00036081, No Iterations 6
smoothSolver:  Solving for k, Initial residual = 0.0483754, Final residual = 0.00387441, No Iterations 6
ExecutionTime = 0.33 s  ClockTime = 0 s

scalarTransport execute: age
smoothSolver:  Solving for age, Initial residual = 0.0217982, Final residual = 0.00217719, No Iterations 5

Time = 26

smoothSolver:  Solving for Ux, Initial residual = 0.016922, Final residual = 0.00125679, No Iterations 6
smoothSolver:  Solving for Uy, Initial residual = 0.0135086, Final residual = 0.00101784, No Iterations 6
GAMG:  Solving for p, Initial residual = 0.0125676, Final residual = 0.000834412, No Iterations 2
time step continuity errors : sum local = 0.0023158, global = 0.000172075, cumulative = 0.00765643
smoothSolver:  Solving for omega, Initial residual = 0.0049779, Final residual = 0.000334062, No Iterations 6
smoothSolver:  Solving for k, Initial residual = 0.0460643, Final residual = 0.00369676, No Iterations 6
ExecutionTime = 0.34 s  ClockTime = 0 s

scalarTransport execute: age
smoothSolver:  Solving for age, Initial residual = 0.0207513, Final residual = 0.00185126, No Iterations 6

Time = 27

smoothSolver:  Solving for Ux, Initial residual = 0.0166906, Final residual = 0.00124721, No Iterations 6
smoothSolver:  Solving for Uy, Initial residual = 0.0133308, Final residual = 0.00100148, No Iterations 6
GAMG:  Solving for p, Initial residual = 0.0126912, Final residual = 0.000831301, No Iterations 2
time step continuity errors : sum local = 0.00229557, global = 0.000160802, cumulative = 0.00781723
smoothSolver:  Solving for omega, Initial residual = 0.00462868, Final residual = 0.00031027, No Iterations 6
smoothSolver:  Solving for k, Initial residual = 0.0439311, Final residual = 0.00353169, No Iterations 6
ExecutionTime = 0.35 s  ClockTime = 0 s

scalarTransport execute: age
smoothSolver:  Solving for age, Initial residual = 0.0196492, Final residual = 0.00189703, No Iterations 6

Time = 28

smoothSolver:  Solving for Ux, Initial residual = 0.0165112, Final residual = 0.00124024, No Iterations 6
smoothSolver:  Solving for Uy, Initial residual = 0.0131534, Final residual = 0.00098392, No Iterations 6
GAMG:  Solving for p, Initial residual = 0.0129675, Final residual = 0.000838621, No Iterations 2
time step continuity errors : sum local = 0.00230675, global = 0.000154515, cumulative = 0.00797174
smoothSolver:  Solving for omega, Initial residual = 0.00432127, Final residual = 0.000288808, No Iterations 6
smoothSolver:  Solving for k, Initial residual = 0.0419468, Final residual = 0.00337714, No Iterations 6
ExecutionTime = 0.36 s  ClockTime = 0 s

scalarTransport execute: age
smoothSolver:  Solving for age, Initial residual = 0.018586, Final residual = 0.00162972, No Iterations 7

Time = 29

smoothSolver:  Solving for Ux, Initial residual = 0.016393, Final residual = 0.00123603, No Iterations 6
smoothSolver:  Solving for Uy, Initial residual = 0.0129517, Final residual = 0.000965425, No Iterations 6
GAMG:  Solving for p, Initial residual = 0.01315, Final residual = 0.000875596, No Iterations 2
time step continuity errors : sum local = 0.00239262, global = 0.000152359, cumulative = 0.0081241
smoothSolver:  Solving for omega, Initial residual = 0.00404339, Final residual = 0.000269321, No Iterations 6
smoothSolver:  Solving for k, Initial residual = 0.0400932, Final residual = 0.00323195, No Iterations 6
ExecutionTime = 0.37 s  ClockTime = 0 s

scalarTransport execute: age
smoothSolver:  Solving for age, Initial residual = 0.0175858, Final residual = 0.00173339, No Iterations 7

Time = 30

smoothSolver:  Solving for Ux, Initial residual = 0.0162952, Final residual = 0.00123111, No Iterations 6
smoothSolver:  Solving for Uy, Initial residual = 0.0127175, Final residual = 0.000945782, No Iterations 6
GAMG:  Solving for p, Initial residual = 0.0131661, Final residual = 0.000919818, No Iterations 2
time step continuity errors : sum local = 0.00249784, global = 0.000151759, cumulative = 0.00827586
smoothSolver:  Solving for omega, Initial residual = 0.00379443, Final residual = 0.000251588, No Iterations 6
smoothSolver:  Solving for k, Initial residual = 0.0383606, Final residual = 0.00309558, No Iterations 6
ExecutionTime = 0.39 s  ClockTime = 0 s

scalarTransport execute: age
smoothSolver:  Solving for age, Initial residual = 0.0168685, Final residual = 0.00152901, No Iterations 8

Time = 31

smoothSolver:  Solving for Ux, Initial residual = 0.0162102, Final residual = 0.00122615, No Iterations 6
smoothSolver:  Solving for Uy, Initial residual = 0.0124338, Final residual = 0.000923872, No Iterations 6
GAMG:  Solving for p, Initial residual = 0.0129153, Final residual = 0.000949655, No Iterations 2
time step continuity errors : sum local = 0.00256489, global = 0.00015047, cumulative = 0.00842633
smoothSolver:  Solving for omega, Initial residual = 0.00356567, Final residual = 0.000235383, No Iterations 6
smoothSolver:  Solving for k, Initial residual = 0.0367364, Final residual = 0.00296708, No Iterations 6
ExecutionTime = 0.4 s  ClockTime = 0 s

scalarTransport execute: age
smoothSolver:  Solving for age, Initial residual = 0.0164473, Final residual = 0.00161374, No Iterations 8

Time = 32

smoothSolver:  Solving for Ux, Initial residual = 0.0161185, Final residual = 0.00121927, No Iterations 6
smoothSolver:  Solving for Uy, Initial residual = 0.0121117, Final residual = 0.000900528, No Iterations 6
GAMG:  Solving for p, Initial residual = 0.0124053, Final residual = 0.000969959, No Iterations 2
time step continuity errors : sum local = 0.00260694, global = 0.000146032, cumulative = 0.00857236
smoothSolver:  Solving for omega, Initial residual = 0.00335768, Final residual = 0.000220521, No Iterations 6
smoothSolver:  Solving for k, Initial residual = 0.0352104, Final residual = 0.00284604, No Iterations 6
ExecutionTime = 0.41 s  ClockTime = 0 s

scalarTransport execute: age
smoothSolver:  Solving for age, Initial residual = 0.0162844, Final residual = 0.00148502, No Iterations 9

Time = 33

smoothSolver:  Solving for Ux, Initial residual = 0.0160054, Final residual = 0.00121078, No Iterations 6
smoothSolver:  Solving for Uy, Initial residual = 0.0117652, Final residual = 0.000876727, No Iterations 6
GAMG:  Solving for p, Initial residual = 0.0117952, Final residual = 0.000985705, No Iterations 2
time step continuity errors : sum local = 0.00263829, global = 0.000137323, cumulative = 0.00870969
smoothSolver:  Solving for omega, Initial residual = 0.00316948, Final residual = 0.000206831, No Iterations 6
smoothSolver:  Solving for k, Initial residual = 0.0337753, Final residual = 0.00273232, No Iterations 6
ExecutionTime = 0.42 s  ClockTime = 0 s

scalarTransport execute: age
smoothSolver:  Solving for age, Initial residual = 0.0162715, Final residual = 0.00155296, No Iterations 9

Time = 34

smoothSolver:  Solving for Ux, Initial residual = 0.0158682, Final residual = 0.00120009, No Iterations 6
smoothSolver:  Solving for Uy, Initial residual = 0.0114088, Final residual = 0.0008538, No Iterations 6
GAMG:  Solving for p, Initial residual = 0.0112874, Final residual = 0.00100515, No Iterations 2
time step continuity errors : sum local = 0.00268066, global = 0.00012598, cumulative = 0.00883567
smoothSolver:  Solving for omega, Initial residual = 0.00299444, Final residual = 0.000194208, No Iterations 6
smoothSolver:  Solving for k, Initial residual = 0.032427, Final residual = 0.00262582, No Iterations 6
ExecutionTime = 0.43 s  ClockTime = 0 s

scalarTransport execute: age
smoothSolver:  Solving for age, Initial residual = 0.0163889, Final residual = 0.00163757, No Iterations 9

Time = 35

smoothSolver:  Solving for Ux, Initial residual = 0.0157251, Final residual = 0.00118895, No Iterations 6
smoothSolver:  Solving for Uy, Initial residual = 0.011087, Final residual = 0.000833339, No Iterations 6
GAMG:  Solving for p, Initial residual = 0.010903, Final residual = 0.00103329, No Iterations 2
time step continuity errors : sum local = 0.00274557, global = 0.000115706, cumulative = 0.00895137
smoothSolver:  Solving for omega, Initial residual = 0.00283139, Final residual = 0.000282365, No Iterations 5
smoothSolver:  Solving for k, Initial residual = 0.0311857, Final residual = 0.00252794, No Iterations 6
ExecutionTime = 0.45 s  ClockTime = 0 s

scalarTransport execute: age
smoothSolver:  Solving for age, Initial residual = 0.0175084, Final residual = 0.00173509, No Iterations 9

Time = 36

smoothSolver:  Solving for Ux, Initial residual = 0.0156039, Final residual = 0.00117832, No Iterations 6
smoothSolver:  Solving for Uy, Initial residual = 0.0108095, Final residual = 0.000814651, No Iterations 6
GAMG:  Solving for p, Initial residual = 0.0105559, Final residual = 0.000890323, No Iterations 3
time step continuity errors : sum local = 0.00234883, global = 6.51273e-05, cumulative = 0.0090165
smoothSolver:  Solving for omega, Initial residual = 0.00272151, Final residual = 0.000267848, No Iterations 5
smoothSolver:  Solving for k, Initial residual = 0.0300329, Final residual = 0.00243742, No Iterations 6
ExecutionTime = 0.46 s  ClockTime = 1 s

scalarTransport execute: age
smoothSolver:  Solving for age, Initial residual = 0.0175899, Final residual = 0.00164586, No Iterations 10

Time = 37

smoothSolver:  Solving for Ux, Initial residual = 0.0157092, Final residual = 0.00118019, No Iterations 6
smoothSolver:  Solving for Uy, Initial residual = 0.010688, Final residual = 0.000803294, No Iterations 6
GAMG:  Solving for p, Initial residual = 0.0104666, Final residual = 0.000862999, No Iterations 2
time step continuity errors : sum local = 0.00225278, global = 7.65056e-05, cumulative = 0.00909301
smoothSolver:  Solving for omega, Initial residual = 0.00256883, Final residual = 0.000253277, No Iterations 5
smoothSolver:  Solving for k, Initial residual = 0.028961, Final residual = 0.00235213, No Iterations 6
ExecutionTime = 0.47 s  ClockTime = 1 s

scalarTransport execute: age
smoothSolver:  Solving for age, Initial residual = 0.0182957, Final residual = 0.00178111, No Iterations 10

Time = 38

smoothSolver:  Solving for Ux, Initial residual = 0.0154274, Final residual = 0.00115844, No Iterations 6
smoothSolver:  Solving for Uy, Initial residual = 0.0103204, Final residual = 0.000783411, No Iterations 6
GAMG:  Solving for p, Initial residual = 0.0103403, Final residual = 0.000667276, No Iterations 3
time step continuity errors : sum local = 0.0017376, global = 5.4817e-05, cumulative = 0.00914782
smoothSolver:  Solving for omega, Initial residual = 0.00244996, Final residual = 0.000239623, No Iterations 5
smoothSolver:  Solving for k, Initial residual = 0.0279476, Final residual = 0.00227203, No Iterations 6
ExecutionTime = 0.48 s  ClockTime = 1 s

scalarTransport execute: age
smoothSolver:  Solving for age, Initial residual = 0.0185459, Final residual = 0.00168861, No Iterations 11

Time = 39

smoothSolver:  Solving for Ux, Initial residual = 0.0152567, Final residual = 0.00113551, No Iterations 6
smoothSolver:  Solving for Uy, Initial residual = 0.010086, Final residual = 0.000767687, No Iterations 6
GAMG:  Solving for p, Initial residual = 0.00983729, Final residual = 0.000958196, No Iterations 2
time step continuity errors : sum local = 0.00249398, global = 6.44765e-05, cumulative = 0.0092123
smoothSolver:  Solving for omega, Initial residual = 0.00233325, Final residual = 0.000226864, No Iterations 5
smoothSolver:  Solving for k, Initial residual = 0.0270052, Final residual = 0.0021962, No Iterations 6
ExecutionTime = 0.49 s  ClockTime = 1 s

scalarTransport execute: age
smoothSolver:  Solving for age, Initial residual = 0.0193561, Final residual = 0.00187657, No Iterations 11

Time = 40

smoothSolver:  Solving for Ux, Initial residual = 0.0150151, Final residual = 0.00111457, No Iterations 6
smoothSolver:  Solving for Uy, Initial residual = 0.00984443, Final residual = 0.000752383, No Iterations 6
GAMG:  Solving for p, Initial residual = 0.0099674, Final residual = 0.000824167, No Iterations 3
time step continuity errors : sum local = 0.0021374, global = 5.81071e-05, cumulative = 0.00927041
smoothSolver:  Solving for omega, Initial residual = 0.0022302, Final residual = 0.000214765, No Iterations 5
smoothSolver:  Solving for k, Initial residual = 0.0261159, Final residual = 0.00212469, No Iterations 6
ExecutionTime = 0.51 s  ClockTime = 1 s

scalarTransport execute: age
smoothSolver:  Solving for age, Initial residual = 0.0202414, Final residual = 0.00177901, No Iterations 12

Time = 41

smoothSolver:  Solving for Ux, Initial residual = 0.0149139, Final residual = 0.00109561, No Iterations 6
smoothSolver:  Solving for Uy, Initial residual = 0.00972538, Final residual = 0.000745091, No Iterations 6
GAMG:  Solving for p, Initial residual = 0.00971653, Final residual = 0.000640996, No Iterations 3
time step continuity errors : sum local = 0.00166, global = 5.10755e-05, cumulative = 0.00932148
smoothSolver:  Solving for omega, Initial residual = 0.00213516, Final residual = 0.00020322, No Iterations 5
smoothSolver:  Solving for k, Initial residual = 0.0252915, Final residual = 0.00205723, No Iterations 6
ExecutionTime = 0.52 s  ClockTime = 1 s

scalarTransport execute: age
smoothSolver:  Solving for age, Initial residual = 0.0209653, Final residual = 0.00190182, No Iterations 12

Time = 42

smoothSolver:  Solving for Ux, Initial residual = 0.0147694, Final residual = 0.00108033, No Iterations 6
smoothSolver:  Solving for Uy, Initial residual = 0.00964117, Final residual = 0.000739453, No Iterations 6
GAMG:  Solving for p, Initial residual = 0.0096073, Final residual = 0.000607101, No Iterations 3
time step continuity errors : sum local = 0.00156391, global = 4.98706e-05, cumulative = 0.00937135
smoothSolver:  Solving for omega, Initial residual = 0.0020406, Final residual = 0.000193332, No Iterations 5
smoothSolver:  Solving for k, Initial residual = 0.0245118, Final residual = 0.0019936, No Iterations 6
ExecutionTime = 0.53 s  ClockTime = 1 s

scalarTransport execute: age
smoothSolver:  Solving for age, Initial residual = 0.0218979, Final residual = 0.00203076, No Iterations 12

Time = 43

smoothSolver:  Solving for Ux, Initial residual = 0.0145692, Final residual = 0.00106203, No Iterations 6
smoothSolver:  Solving for Uy, Initial residual = 0.00951404, Final residual = 0.000732349, No Iterations 6
GAMG:  Solving for p, Initial residual = 0.00943874, Final residual = 0.000578894, No Iterations 3
time step continuity errors : sum local = 0.00148605, global = 4.90004e-05, cumulative = 0.00942035
smoothSolver:  Solving for omega, Initial residual = 0.00194475, Final residual = 0.000183415, No Iterations 5
smoothSolver:  Solving for k, Initial residual = 0.0237867, Final residual = 0.00193359, No Iterations 6
ExecutionTime = 0.54 s  ClockTime = 1 s

scalarTransport execute: age
smoothSolver:  Solving for age, Initial residual = 0.0222196, Final residual = 0.00205833, No Iterations 12

Time = 44

smoothSolver:  Solving for Ux, Initial residual = 0.0143566, Final residual = 0.00104172, No Iterations 6
smoothSolver:  Solving for Uy, Initial residual = 0.00939768, Final residual = 0.000726264, No Iterations 6
GAMG:  Solving for p, Initial residual = 0.00925408, Final residual = 0.000604738, No Iterations 3
time step continuity errors : sum local = 0.00154605, global = 4.80101e-05, cumulative = 0.00946836
smoothSolver:  Solving for omega, Initial residual = 0.00187144, Final residual = 0.000174593, No Iterations 5
smoothSolver:  Solving for k, Initial residual = 0.0231009, Final residual = 0.00187689, No Iterations 6
ExecutionTime = 0.55 s  ClockTime = 1 s

scalarTransport execute: age
smoothSolver:  Solving for age, Initial residual = 0.021855, Final residual = 0.00196068, No Iterations 12

Time = 45

smoothSolver:  Solving for Ux, Initial residual = 0.0141199, Final residual = 0.00101984, No Iterations 6
smoothSolver:  Solving for Uy, Initial residual = 0.00929416, Final residual = 0.000720839, No Iterations 6
GAMG:  Solving for p, Initial residual = 0.00903787, Final residual = 0.000599656, No Iterations 3
time step continuity errors : sum local = 0.00152573, global = 4.74502e-05, cumulative = 0.00951581
smoothSolver:  Solving for omega, Initial residual = 0.0017918, Final residual = 0.000165982, No Iterations 5
smoothSolver:  Solving for k, Initial residual = 0.0224611, Final residual = 0.00182338, No Iterations 6
ExecutionTime = 0.57 s  ClockTime = 1 s

scalarTransport execute: age
smoothSolver:  Solving for age, Initial residual = 0.0213051, Final residual = 0.00204007, No Iterations 11

Time = 46

smoothSolver:  Solving for Ux, Initial residual = 0.0138811, Final residual = 0.000997909, No Iterations 6
smoothSolver:  Solving for Uy, Initial residual = 0.00920228, Final residual = 0.000716446, No Iterations 6
GAMG:  Solving for p, Initial residual = 0.00881058, Final residual = 0.000614384, No Iterations 3
time step continuity errors : sum local = 0.00155429, global = 4.92996e-05, cumulative = 0.00956511
smoothSolver:  Solving for omega, Initial residual = 0.00172831, Final residual = 0.000158364, No Iterations 5
smoothSolver:  Solving for k, Initial residual = 0.0218569, Final residual = 0.00177285, No Iterations 6
ExecutionTime = 0.58 s  ClockTime = 1 s

scalarTransport execute: age
smoothSolver:  Solving for age, Initial residual = 0.0203616, Final residual = 0.00183928, No Iterations 11

Time = 47

smoothSolver:  Solving for Ux, Initial residual = 0.0136259, Final residual = 0.000975563, No Iterations 6
smoothSolver:  Solving for Uy, Initial residual = 0.00913059, Final residual = 0.000713241, No Iterations 6
GAMG:  Solving for p, Initial residual = 0.00858776, Final residual = 0.000612316, No Iterations 3
time step continuity errors : sum local = 0.00153955, global = 4.95807e-05, cumulative = 0.00961469
smoothSolver:  Solving for omega, Initial residual = 0.00165921, Final residual = 0.000151008, No Iterations 5
smoothSolver:  Solving for k, Initial residual = 0.021291, Final residual = 0.00172497, No Iterations 6
ExecutionTime = 0.59 s  ClockTime = 1 s

scalarTransport execute: age
smoothSolver:  Solving for age, Initial residual = 0.0194651, Final residual = 0.00190093, No Iterations 10

Time = 48

smoothSolver:  Solving for Ux, Initial residual = 0.0133628, Final residual = 0.000952975, No Iterations 6
smoothSolver:  Solving for Uy, Initial residual = 0.00904743, Final residual = 0.000709372, No Iterations 6
GAMG:  Solving for p, Initial residual = 0.00837816, Final residual = 0.000612609, No Iterations 3
time step continuity errors : sum local = 0.00153048, global = 5.11333e-05, cumulative = 0.00966583
smoothSolver:  Solving for omega, Initial residual = 0.00160178, Final residual = 0.000144396, No Iterations 5
smoothSolver:  Solving for k, Initial residual = 0.0207539, Final residual = 0.00167945, No Iterations 6
ExecutionTime = 0.6 s  ClockTime = 1 s

scalarTransport execute: age
smoothSolver:  Solving for age, Initial residual = 0.0186689, Final residual = 0.00175126, No Iterations 10

Time = 49

smoothSolver:  Solving for Ux, Initial residual = 0.0130819, Final residual = 0.000929251, No Iterations 6
smoothSolver:  Solving for Uy, Initial residual = 0.00896897, Final residual = 0.000705477, No Iterations 6
GAMG:  Solving for p, Initial residual = 0.00818903, Final residual = 0.000622031, No Iterations 3
time step continuity errors : sum local = 0.00154265, global = 5.26807e-05, cumulative = 0.00971851
smoothSolver:  Solving for omega, Initial residual = 0.00154235, Final residual = 0.000138072, No Iterations 5
smoothSolver:  Solving for k, Initial residual = 0.0202485, Final residual = 0.00163602, No Iterations 6
ExecutionTime = 0.62 s  ClockTime = 1 s

scalarTransport execute: age
smoothSolver:  Solving for age, Initial residual = 0.0180175, Final residual = 0.00161606, No Iterations 10

Time = 50

smoothSolver:  Solving for Ux, Initial residual = 0.0127879, Final residual = 0.000904699, No Iterations 6
smoothSolver:  Solving for Uy, Initial residual = 0.00888097, Final residual = 0.000700957, No Iterations 6
GAMG:  Solving for p, Initial residual = 0.00801714, Final residual = 0.000625806, No Iterations 3
time step continuity errors : sum local = 0.00154042, global = 5.52185e-05, cumulative = 0.00977373
smoothSolver:  Solving for omega, Initial residual = 0.00149113, Final residual = 0.000132313, No Iterations 5
smoothSolver:  Solving for k, Initial residual = 0.0197657, Final residual = 0.00159454, No Iterations 6
ExecutionTime = 0.63 s  ClockTime = 1 s

scalarTransport execute: age
smoothSolver:  Solving for age, Initial residual = 0.0174322, Final residual = 0.00149812, No Iterations 10

Time = 51

smoothSolver:  Solving for Ux, Initial residual = 0.0124874, Final residual = 0.000879677, No Iterations 6
smoothSolver:  Solving for Uy, Initial residual = 0.00880145, Final residual = 0.000696056, No Iterations 6
GAMG:  Solving for p, Initial residual = 0.00787355, Final residual = 0.000636434, No Iterations 3
time step continuity errors : sum local = 0.00155486, global = 5.71167e-05, cumulative = 0.00983084
smoothSolver:  Solving for omega, Initial residual = 0.0014386, Final residual = 0.000126655, No Iterations 5
smoothSolver:  Solving for k, Initial residual = 0.0193081, Final residual = 0.00155478, No Iterations 6
ExecutionTime = 0.64 s  ClockTime = 1 s

scalarTransport execute: age
smoothSolver:  Solving for age, Initial residual = 0.0168456, Final residual = 0.00163992, No Iterations 9

Time = 52

smoothSolver:  Solving for Ux, Initial residual = 0.0121935, Final residual = 0.000854501, No Iterations 6
smoothSolver:  Solving for Uy, Initial residual = 0.00871299, Final residual = 0.000689355, No Iterations 6
GAMG:  Solving for p, Initial residual = 0.0077342, Final residual = 0.000633752, No Iterations 3
time step continuity errors : sum local = 0.00153671, global = 5.97217e-05, cumulative = 0.00989056
smoothSolver:  Solving for omega, Initial residual = 0.00138838, Final residual = 0.00012104, No Iterations 5
smoothSolver:  Solving for k, Initial residual = 0.0188667, Final residual = 0.00151664, No Iterations 6
ExecutionTime = 0.65 s  ClockTime = 1 s

scalarTransport execute: age
smoothSolver:  Solving for age, Initial residual = 0.0160915, Final residual = 0.00155127, No Iterations 9

Time = 53

smoothSolver:  Solving for Ux, Initial residual = 0.0118993, Final residual = 0.000829117, No Iterations 6
smoothSolver:  Solving for Uy, Initial residual = 0.00861731, Final residual = 0.000681432, No Iterations 6
GAMG:  Solving for p, Initial residual = 0.00763089, Final residual = 0.000643413, No Iterations 3
time step continuity errors : sum local = 0.00154828, global = 6.15703e-05, cumulative = 0.00995213
smoothSolver:  Solving for omega, Initial residual = 0.00132149, Final residual = 0.000114956, No Iterations 5
smoothSolver:  Solving for k, Initial residual = 0.0184401, Final residual = 0.00148002, No Iterations 6
ExecutionTime = 0.66 s  ClockTime = 1 s

scalarTransport execute: age
smoothSolver:  Solving for age, Initial residual = 0.0153277, Final residual = 0.00148104, No Iterations 9

Time = 54

smoothSolver:  Solving for Ux, Initial residual = 0.0116077, Final residual = 0.000803957, No Iterations 6
smoothSolver:  Solving for Uy, Initial residual = 0.00850514, Final residual = 0.000670879, No Iterations 6
GAMG:  Solving for p, Initial residual = 0.00751753, Final residual = 0.00064192, No Iterations 3
time step continuity errors : sum local = 0.00153288, global = 6.3889e-05, cumulative = 0.010016
smoothSolver:  Solving for omega, Initial residual = 0.00127493, Final residual = 0.000109918, No Iterations 5
smoothSolver:  Solving for k, Initial residual = 0.0180285, Final residual = 0.00144438, No Iterations 6
ExecutionTime = 0.68 s  ClockTime = 1 s

scalarTransport execute: age
smoothSolver:  Solving for age, Initial residual = 0.0146235, Final residual = 0.00140243, No Iterations 9

Time = 55

smoothSolver:  Solving for Ux, Initial residual = 0.0113292, Final residual = 0.000779124, No Iterations 6
smoothSolver:  Solving for Uy, Initial residual = 0.00837255, Final residual = 0.000658595, No Iterations 6
GAMG:  Solving for p, Initial residual = 0.00744751, Final residual = 0.000651562, No Iterations 3
time step continuity errors : sum local = 0.00154413, global = 6.53507e-05, cumulative = 0.0100814
smoothSolver:  Solving for omega, Initial residual = 0.00123917, Final residual = 0.000105734, No Iterations 5
smoothSolver:  Solving for k, Initial residual = 0.0176291, Final residual = 0.00140931, No Iterations 6
ExecutionTime = 0.69 s  ClockTime = 1 s

scalarTransport execute: age
smoothSolver:  Solving for age, Initial residual = 0.0140244, Final residual = 0.0013222, No Iterations 9

Time = 56

smoothSolver:  Solving for Ux, Initial residual = 0.0110658, Final residual = 0.000754959, No Iterations 6
smoothSolver:  Solving for Uy, Initial residual = 0.00820772, Final residual = 0.00064323, No Iterations 6
GAMG:  Solving for p, Initial residual = 0.00736326, Final residual = 0.000646185, No Iterations 3
time step continuity errors : sum local = 0.00151985, global = 6.68567e-05, cumulative = 0.0101482
smoothSolver:  Solving for omega, Initial residual = 0.00120975, Final residual = 0.000101874, No Iterations 5
smoothSolver:  Solving for k, Initial residual = 0.0172336, Final residual = 0.00137455, No Iterations 6
ExecutionTime = 0.7 s  ClockTime = 1 s

scalarTransport execute: age
smoothSolver:  Solving for age, Initial residual = 0.0133685, Final residual = 0.00124749, No Iterations 9

Time = 57

smoothSolver:  Solving for Ux, Initial residual = 0.0108065, Final residual = 0.000731161, No Iterations 6
smoothSolver:  Solving for Uy, Initial residual = 0.0080327, Final residual = 0.000626328, No Iterations 6
GAMG:  Solving for p, Initial residual = 0.00732865, Final residual = 0.000650049, No Iterations 3
time step continuity errors : sum local = 0.00151794, global = 6.73543e-05, cumulative = 0.0102156
smoothSolver:  Solving for omega, Initial residual = 0.00117783, Final residual = 9.82235e-05, No Iterations 5
smoothSolver:  Solving for k, Initial residual = 0.0168403, Final residual = 0.00133993, No Iterations 6
ExecutionTime = 0.71 s  ClockTime = 1 s

scalarTransport execute: age
smoothSolver:  Solving for age, Initial residual = 0.0127129, Final residual = 0.00118643, No Iterations 9

Time = 58

smoothSolver:  Solving for Ux, Initial residual = 0.010543, Final residual = 0.000707627, No Iterations 6
smoothSolver:  Solving for Uy, Initial residual = 0.00782987, Final residual = 0.000607068, No Iterations 6
GAMG:  Solving for p, Initial residual = 0.00727841, Final residual = 0.000640315, No Iterations 3
time step continuity errors : sum local = 0.0014848, global = 6.76151e-05, cumulative = 0.0102832
smoothSolver:  Solving for omega, Initial residual = 0.00115232, Final residual = 9.49015e-05, No Iterations 5
smoothSolver:  Solving for k, Initial residual = 0.0164446, Final residual = 0.0013052, No Iterations 6
ExecutionTime = 0.72 s  ClockTime = 1 s

scalarTransport execute: age
smoothSolver:  Solving for age, Initial residual = 0.0120946, Final residual = 0.00113264, No Iterations 9

Time = 59

smoothSolver:  Solving for Ux, Initial residual = 0.010276, Final residual = 0.000684498, No Iterations 6
smoothSolver:  Solving for Uy, Initial residual = 0.00761003, Final residual = 0.000586623, No Iterations 6
GAMG:  Solving for p, Initial residual = 0.00727169, Final residual = 0.000632387, No Iterations 3
time step continuity errors : sum local = 0.00145625, global = 6.73961e-05, cumulative = 0.0103506
smoothSolver:  Solving for omega, Initial residual = 0.00112637, Final residual = 9.17394e-05, No Iterations 5
smoothSolver:  Solving for k, Initial residual = 0.0160456, Final residual = 0.0012701, No Iterations 6
ExecutionTime = 0.74 s  ClockTime = 1 s

scalarTransport execute: age
smoothSolver:  Solving for age, Initial residual = 0.0116431, Final residual = 0.00108012, No Iterations 9

Time = 60

smoothSolver:  Solving for Ux, Initial residual = 0.010012, Final residual = 0.000662065, No Iterations 6
smoothSolver:  Solving for Uy, Initial residual = 0.00736539, Final residual = 0.000563866, No Iterations 6
GAMG:  Solving for p, Initial residual = 0.00725547, Final residual = 0.000615819, No Iterations 3
time step continuity errors : sum local = 0.00140835, global = 6.72061e-05, cumulative = 0.0104178
smoothSolver:  Solving for omega, Initial residual = 0.00110247, Final residual = 8.87488e-05, No Iterations 5
smoothSolver:  Solving for k, Initial residual = 0.0156372, Final residual = 0.00123432, No Iterations 6
ExecutionTime = 0.75 s  ClockTime = 1 s

scalarTransport execute: age
smoothSolver:  Solving for age, Initial residual = 0.0111914, Final residual = 0.00103064, No Iterations 9

Time = 61

smoothSolver:  Solving for Ux, Initial residual = 0.00974811, Final residual = 0.000640163, No Iterations 6
smoothSolver:  Solving for Uy, Initial residual = 0.00710695, Final residual = 0.00054016, No Iterations 6
GAMG:  Solving for p, Initial residual = 0.00726668, Final residual = 0.000599711, No Iterations 3
time step continuity errors : sum local = 0.00136211, global = 6.62498e-05, cumulative = 0.0104841
smoothSolver:  Solving for omega, Initial residual = 0.00110156, Final residual = 8.61623e-05, No Iterations 5
smoothSolver:  Solving for k, Initial residual = 0.0152238, Final residual = 0.00119809, No Iterations 6
ExecutionTime = 0.76 s  ClockTime = 1 s

scalarTransport execute: age
smoothSolver:  Solving for age, Initial residual = 0.0106292, Final residual = 0.000980973, No Iterations 9

Time = 62

smoothSolver:  Solving for Ux, Initial residual = 0.00947827, Final residual = 0.000618979, No Iterations 6
smoothSolver:  Solving for Uy, Initial residual = 0.00682576, Final residual = 0.000514634, No Iterations 6
GAMG:  Solving for p, Initial residual = 0.00726875, Final residual = 0.000580137, No Iterations 3
time step continuity errors : sum local = 0.00130809, global = 6.51895e-05, cumulative = 0.0105492
smoothSolver:  Solving for omega, Initial residual = 0.00107668, Final residual = 8.31759e-05, No Iterations 5
smoothSolver:  Solving for k, Initial residual = 0.0147949, Final residual = 0.00116095, No Iterations 6
ExecutionTime = 0.77 s  ClockTime = 1 s

scalarTransport execute: age
smoothSolver:  Solving for age, Initial residual = 0.0101078, Final residual = 0.000933162, No Iterations 9

Time = 63

smoothSolver:  Solving for Ux, Initial residual = 0.00921949, Final residual = 0.000921896, No Iterations 5
smoothSolver:  Solving for Uy, Initial residual = 0.00654175, Final residual = 0.000488513, No Iterations 6
GAMG:  Solving for p, Initial residual = 0.00722905, Final residual = 0.000557655, No Iterations 3
time step continuity errors : sum local = 0.0012485, global = 6.2993e-05, cumulative = 0.0106122
smoothSolver:  Solving for omega, Initial residual = 0.00105286, Final residual = 8.01568e-05, No Iterations 5
smoothSolver:  Solving for k, Initial residual = 0.0143561, Final residual = 0.00112303, No Iterations 6
ExecutionTime = 0.78 s  ClockTime = 1 s

scalarTransport execute: age
smoothSolver:  Solving for age, Initial residual = 0.00964897, Final residual = 0.000886138, No Iterations 9

Time = 64

smoothSolver:  Solving for Ux, Initial residual = 0.00905361, Final residual = 0.000902326, No Iterations 5
smoothSolver:  Solving for Uy, Initial residual = 0.0062146, Final residual = 0.000459177, No Iterations 6
GAMG:  Solving for p, Initial residual = 0.007308, Final residual = 0.000540749, No Iterations 3
time step continuity errors : sum local = 0.00120128, global = 6.11647e-05, cumulative = 0.0106734
smoothSolver:  Solving for omega, Initial residual = 0.00102893, Final residual = 7.72662e-05, No Iterations 5
smoothSolver:  Solving for k, Initial residual = 0.0139027, Final residual = 0.00108436, No Iterations 6
ExecutionTime = 0.8 s  ClockTime = 1 s

scalarTransport execute: age
smoothSolver:  Solving for age, Initial residual = 0.00927467, Final residual = 0.000842552, No Iterations 9

Time = 65

smoothSolver:  Solving for Ux, Initial residual = 0.00884927, Final residual = 0.000878704, No Iterations 5
smoothSolver:  Solving for Uy, Initial residual = 0.00590913, Final residual = 0.000431455, No Iterations 6
GAMG:  Solving for p, Initial residual = 0.00744456, Final residual = 0.000522024, No Iterations 3
time step continuity errors : sum local = 0.00115052, global = 5.99003e-05, cumulative = 0.0107333
smoothSolver:  Solving for omega, Initial residual = 0.00100578, Final residual = 7.45533e-05, No Iterations 5
smoothSolver:  Solving for k, Initial residual = 0.0134387, Final residual = 0.00104516, No Iterations 6
ExecutionTime = 0.81 s  ClockTime = 1 s

scalarTransport execute: age
smoothSolver:  Solving for age, Initial residual = 0.00894273, Final residual = 0.00080587, No Iterations 9

Time = 66

smoothSolver:  Solving for Ux, Initial residual = 0.00863187, Final residual = 0.000853658, No Iterations 5
smoothSolver:  Solving for Uy, Initial residual = 0.00561278, Final residual = 0.000404175, No Iterations 6
GAMG:  Solving for p, Initial residual = 0.00765046, Final residual = 0.000506526, No Iterations 3
time step continuity errors : sum local = 0.00110909, global = 5.91429e-05, cumulative = 0.0107924
smoothSolver:  Solving for omega, Initial residual = 0.000982005, Final residual = 7.19565e-05, No Iterations 5
smoothSolver:  Solving for k, Initial residual = 0.0129743, Final residual = 0.00100598, No Iterations 6
ExecutionTime = 0.82 s  ClockTime = 1 s

scalarTransport execute: age
smoothSolver:  Solving for age, Initial residual = 0.00863781, Final residual = 0.000781552, No Iterations 9

Time = 67

smoothSolver:  Solving for Ux, Initial residual = 0.00841227, Final residual = 0.000829265, No Iterations 5
smoothSolver:  Solving for Uy, Initial residual = 0.00533099, Final residual = 0.000378018, No Iterations 6
GAMG:  Solving for p, Initial residual = 0.00786085, Final residual = 0.000488437, No Iterations 3
time step continuity errors : sum local = 0.00106407, global = 5.8627e-05, cumulative = 0.0108511
smoothSolver:  Solving for omega, Initial residual = 0.000960885, Final residual = 6.93321e-05, No Iterations 5
smoothSolver:  Solving for k, Initial residual = 0.0125028, Final residual = 0.000966821, No Iterations 6
ExecutionTime = 0.83 s  ClockTime = 1 s

scalarTransport execute: age
smoothSolver:  Solving for age, Initial residual = 0.0083986, Final residual = 0.000776717, No Iterations 9

Time = 68

smoothSolver:  Solving for Ux, Initial residual = 0.00820716, Final residual = 0.000807258, No Iterations 5
smoothSolver:  Solving for Uy, Initial residual = 0.0050675, Final residual = 0.000353345, No Iterations 6
GAMG:  Solving for p, Initial residual = 0.00804397, Final residual = 0.00047489, No Iterations 3
time step continuity errors : sum local = 0.00103, global = 5.80999e-05, cumulative = 0.0109092
smoothSolver:  Solving for omega, Initial residual = 0.000939218, Final residual = 6.69399e-05, No Iterations 5
smoothSolver:  Solving for k, Initial residual = 0.01203, Final residual = 0.000928025, No Iterations 6
ExecutionTime = 0.84 s  ClockTime = 1 s

scalarTransport execute: age
smoothSolver:  Solving for age, Initial residual = 0.00822967, Final residual = 0.000788317, No Iterations 9

Time = 69

smoothSolver:  Solving for Ux, Initial residual = 0.00802448, Final residual = 0.000787547, No Iterations 5
smoothSolver:  Solving for Uy, Initial residual = 0.00483063, Final residual = 0.00033123, No Iterations 6
GAMG:  Solving for p, Initial residual = 0.00814022, Final residual = 0.000467727, No Iterations 3
time step continuity errors : sum local = 0.00101116, global = 5.76509e-05, cumulative = 0.0109668
smoothSolver:  Solving for omega, Initial residual = 0.000919631, Final residual = 6.46002e-05, No Iterations 5
smoothSolver:  Solving for k, Initial residual = 0.011561, Final residual = 0.0008899, No Iterations 6
ExecutionTime = 0.86 s  ClockTime = 1 s

scalarTransport execute: age
smoothSolver:  Solving for age, Initial residual = 0.00810998, Final residual = 0.00071631, No Iterations 10

Time = 70

smoothSolver:  Solving for Ux, Initial residual = 0.00784135, Final residual = 0.000769535, No Iterations 5
smoothSolver:  Solving for Uy, Initial residual = 0.00461829, Final residual = 0.000314085, No Iterations 6
GAMG:  Solving for p, Initial residual = 0.00814829, Final residual = 0.000464515, No Iterations 3
time step continuity errors : sum local = 0.00100303, global = 5.67734e-05, cumulative = 0.0110236
smoothSolver:  Solving for omega, Initial residual = 0.000902506, Final residual = 6.22441e-05, No Iterations 5
smoothSolver:  Solving for k, Initial residual = 0.0111008, Final residual = 0.000852708, No Iterations 6
ExecutionTime = 0.87 s  ClockTime = 1 s

scalarTransport execute: age
smoothSolver:  Solving for age, Initial residual = 0.00801088, Final residual = 0.000748212, No Iterations 10

Time = 71

smoothSolver:  Solving for Ux, Initial residual = 0.00767504, Final residual = 0.000753501, No Iterations 5
smoothSolver:  Solving for Uy, Initial residual = 0.00442105, Final residual = 0.00029975, No Iterations 6
GAMG:  Solving for p, Initial residual = 0.00808857, Final residual = 0.000461291, No Iterations 3
time step continuity errors : sum local = 0.000995783, global = 5.61175e-05, cumulative = 0.0110797
smoothSolver:  Solving for omega, Initial residual = 0.000884474, Final residual = 5.98355e-05, No Iterations 5
smoothSolver:  Solving for k, Initial residual = 0.0106549, Final residual = 0.000816867, No Iterations 6
ExecutionTime = 0.88 s  ClockTime = 1 s

scalarTransport execute: age
smoothSolver:  Solving for age, Initial residual = 0.00793282, Final residual = 0.000790045, No Iterations 10

Time = 72

smoothSolver:  Solving for Ux, Initial residual = 0.00752042, Final residual = 0.000738864, No Iterations 5
smoothSolver:  Solving for Uy, Initial residual = 0.00424858, Final residual = 0.000286489, No Iterations 6
GAMG:  Solving for p, Initial residual = 0.00798464, Final residual = 0.000453008, No Iterations 3
time step continuity errors : sum local = 0.000978186, global = 5.51294e-05, cumulative = 0.0111348
smoothSolver:  Solving for omega, Initial residual = 0.000862901, Final residual = 5.73525e-05, No Iterations 5
smoothSolver:  Solving for k, Initial residual = 0.0102277, Final residual = 0.000782562, No Iterations 6
ExecutionTime = 0.89 s  ClockTime = 1 s

scalarTransport execute: age
smoothSolver:  Solving for age, Initial residual = 0.00791189, Final residual = 0.000741064, No Iterations 11

Time = 73

smoothSolver:  Solving for Ux, Initial residual = 0.007363, Final residual = 0.000725939, No Iterations 5
smoothSolver:  Solving for Uy, Initial residual = 0.00410196, Final residual = 0.000273994, No Iterations 6
GAMG:  Solving for p, Initial residual = 0.00789695, Final residual = 0.000439682, No Iterations 3
time step continuity errors : sum local = 0.000949817, global = 5.37291e-05, cumulative = 0.0111886
smoothSolver:  Solving for omega, Initial residual = 0.000840972, Final residual = 5.48172e-05, No Iterations 5
smoothSolver:  Solving for k, Initial residual = 0.00982274, Final residual = 0.000749911, No Iterations 6
ExecutionTime = 0.9 s  ClockTime = 1 s

scalarTransport execute: age
smoothSolver:  Solving for age, Initial residual = 0.00794106, Final residual = 0.000785098, No Iterations 11

Time = 74

smoothSolver:  Solving for Ux, Initial residual = 0.00720681, Final residual = 0.000714067, No Iterations 5
smoothSolver:  Solving for Uy, Initial residual = 0.00396573, Final residual = 0.000262289, No Iterations 6
GAMG:  Solving for p, Initial residual = 0.00781599, Final residual = 0.000423392, No Iterations 3
time step continuity errors : sum local = 0.000915045, global = 5.18468e-05, cumulative = 0.0112404
smoothSolver:  Solving for omega, Initial residual = 0.000815172, Final residual = 5.21905e-05, No Iterations 5
smoothSolver:  Solving for k, Initial residual = 0.00944682, Final residual = 0.000718985, No Iterations 6
ExecutionTime = 0.92 s  ClockTime = 1 s

scalarTransport execute: age
smoothSolver:  Solving for age, Initial residual = 0.0079819, Final residual = 0.000732389, No Iterations 12

Time = 75

smoothSolver:  Solving for Ux, Initial residual = 0.00706137, Final residual = 0.000702204, No Iterations 5
smoothSolver:  Solving for Uy, Initial residual = 0.00383507, Final residual = 0.000251552, No Iterations 6
GAMG:  Solving for p, Initial residual = 0.0076795, Final residual = 0.000405314, No Iterations 3
time step continuity errors : sum local = 0.000876314, global = 4.94369e-05, cumulative = 0.0112899
smoothSolver:  Solving for omega, Initial residual = 0.000789044, Final residual = 4.95777e-05, No Iterations 5
smoothSolver:  Solving for k, Initial residual = 0.00909914, Final residual = 0.000689634, No Iterations 6
ExecutionTime = 0.93 s  ClockTime = 1 s

scalarTransport execute: age
smoothSolver:  Solving for age, Initial residual = 0.00803699, Final residual = 0.000766839, No Iterations 12

Time = 76

smoothSolver:  Solving for Ux, Initial residual = 0.00692191, Final residual = 0.000691177, No Iterations 5
smoothSolver:  Solving for Uy, Initial residual = 0.00371025, Final residual = 0.000241918, No Iterations 6
GAMG:  Solving for p, Initial residual = 0.00754356, Final residual = 0.000397122, No Iterations 3
time step continuity errors : sum local = 0.000858582, global = 4.55925e-05, cumulative = 0.0113354
smoothSolver:  Solving for omega, Initial residual = 0.000761947, Final residual = 4.70061e-05, No Iterations 5
smoothSolver:  Solving for k, Initial residual = 0.0087718, Final residual = 0.000661615, No Iterations 6
ExecutionTime = 0.94 s  ClockTime = 1 s

scalarTransport execute: age
smoothSolver:  Solving for age, Initial residual = 0.00807704, Final residual = 0.000796446, No Iterations 12

Time = 77

smoothSolver:  Solving for Ux, Initial residual = 0.00678467, Final residual = 0.000441843, No Iterations 6
smoothSolver:  Solving for Uy, Initial residual = 0.0035956, Final residual = 0.000358888, No Iterations 5
GAMG:  Solving for p, Initial residual = 0.00736531, Final residual = 0.000373502, No Iterations 3
time step continuity errors : sum local = 0.000807332, global = 4.66417e-05, cumulative = 0.0113821
smoothSolver:  Solving for omega, Initial residual = 0.000734002, Final residual = 7.31561e-05, No Iterations 4
smoothSolver:  Solving for k, Initial residual = 0.00846416, Final residual = 0.000634921, No Iterations 6
ExecutionTime = 0.95 s  ClockTime = 1 s

scalarTransport execute: age
smoothSolver:  Solving for age, Initial residual = 0.00810731, Final residual = 0.000718777, No Iterations 13

Time = 78

smoothSolver:  Solving for Ux, Initial residual = 0.00656978, Final residual = 0.000427831, No Iterations 6
smoothSolver:  Solving for Uy, Initial residual = 0.0035933, Final residual = 0.000233985, No Iterations 6
GAMG:  Solving for p, Initial residual = 0.00723751, Final residual = 0.000722964, No Iterations 2
time step continuity errors : sum local = 0.00156312, global = 0.000101596, cumulative = 0.0114837
smoothSolver:  Solving for omega, Initial residual = 0.000718389, Final residual = 7.02886e-05, No Iterations 4
smoothSolver:  Solving for k, Initial residual = 0.00816399, Final residual = 0.000608912, No Iterations 6
ExecutionTime = 0.96 s  ClockTime = 1 s

scalarTransport execute: age
smoothSolver:  Solving for age, Initial residual = 0.00807073, Final residual = 0.000724024, No Iterations 13

Time = 79

smoothSolver:  Solving for Ux, Initial residual = 0.00641521, Final residual = 0.000419242, No Iterations 6
smoothSolver:  Solving for Uy, Initial residual = 0.00348562, Final residual = 0.000347463, No Iterations 5
GAMG:  Solving for p, Initial residual = 0.00720273, Final residual = 0.000506294, No Iterations 3
time step continuity errors : sum local = 0.00109778, global = 1.53292e-05, cumulative = 0.011499
smoothSolver:  Solving for omega, Initial residual = 0.000704894, Final residual = 6.6846e-05, No Iterations 4
smoothSolver:  Solving for k, Initial residual = 0.00787568, Final residual = 0.000584155, No Iterations 6
ExecutionTime = 0.98 s  ClockTime = 1 s

scalarTransport execute: age
smoothSolver:  Solving for age, Initial residual = 0.00822626, Final residual = 0.000729621, No Iterations 13

Time = 80

smoothSolver:  Solving for Ux, Initial residual = 0.00628776, Final residual = 0.000626585, No Iterations 5
smoothSolver:  Solving for Uy, Initial residual = 0.00348202, Final residual = 0.000345413, No Iterations 5
GAMG:  Solving for p, Initial residual = 0.00686034, Final residual = 0.000677883, No Iterations 2
time step continuity errors : sum local = 0.00146275, global = 9.34925e-05, cumulative = 0.0115925
smoothSolver:  Solving for omega, Initial residual = 0.000684596, Final residual = 6.44282e-05, No Iterations 4
smoothSolver:  Solving for k, Initial residual = 0.00760194, Final residual = 0.000559515, No Iterations 6
ExecutionTime = 0.99 s  ClockTime = 1 s

scalarTransport execute: age
smoothSolver:  Solving for age, Initial residual = 0.00800909, Final residual = 0.000711548, No Iterations 13

Time = 81

smoothSolver:  Solving for Ux, Initial residual = 0.00609132, Final residual = 0.000398368, No Iterations 6
smoothSolver:  Solving for Uy, Initial residual = 0.00333181, Final residual = 0.000329188, No Iterations 5
GAMG:  Solving for p, Initial residual = 0.00670708, Final residual = 0.000450107, No Iterations 3
time step continuity errors : sum local = 0.000975563, global = 3.1286e-06, cumulative = 0.0115956
smoothSolver:  Solving for omega, Initial residual = 0.000663788, Final residual = 6.23057e-05, No Iterations 4
smoothSolver:  Solving for k, Initial residual = 0.00732143, Final residual = 0.000536126, No Iterations 6
ExecutionTime = 1 s  ClockTime = 1 s

scalarTransport execute: age
smoothSolver:  Solving for age, Initial residual = 0.00798989, Final residual = 0.00078543, No Iterations 12

Time = 82

smoothSolver:  Solving for Ux, Initial residual = 0.00593256, Final residual = 0.000385693, No Iterations 6
smoothSolver:  Solving for Uy, Initial residual = 0.00337552, Final residual = 0.00033188, No Iterations 5
GAMG:  Solving for p, Initial residual = 0.00660683, Final residual = 0.000613225, No Iterations 2
time step continuity errors : sum local = 0.00132085, global = 8.48158e-05, cumulative = 0.0116804
smoothSolver:  Solving for omega, Initial residual = 0.000652492, Final residual = 6.01821e-05, No Iterations 4
smoothSolver:  Solving for k, Initial residual = 0.00706799, Final residual = 0.000512862, No Iterations 6
ExecutionTime = 1.01 s  ClockTime = 1 s

scalarTransport execute: age
smoothSolver:  Solving for age, Initial residual = 0.00770218, Final residual = 0.000747608, No Iterations 12

Time = 83

smoothSolver:  Solving for Ux, Initial residual = 0.00570542, Final residual = 0.000372586, No Iterations 6
smoothSolver:  Solving for Uy, Initial residual = 0.00325184, Final residual = 0.00031883, No Iterations 5
GAMG:  Solving for p, Initial residual = 0.00653248, Final residual = 0.000416815, No Iterations 3
time step continuity errors : sum local = 0.000900081, global = -7.23673e-07, cumulative = 0.0116797
smoothSolver:  Solving for omega, Initial residual = 0.000638652, Final residual = 5.81948e-05, No Iterations 4
smoothSolver:  Solving for k, Initial residual = 0.00680192, Final residual = 0.000490995, No Iterations 6
ExecutionTime = 1.02 s  ClockTime = 1 s

scalarTransport execute: age
smoothSolver:  Solving for age, Initial residual = 0.00765597, Final residual = 0.000710148, No Iterations 12

Time = 84

smoothSolver:  Solving for Ux, Initial residual = 0.00552614, Final residual = 0.00054756, No Iterations 5
smoothSolver:  Solving for Uy, Initial residual = 0.00331078, Final residual = 0.000323902, No Iterations 5
GAMG:  Solving for p, Initial residual = 0.0064194, Final residual = 0.000552347, No Iterations 2
time step continuity errors : sum local = 0.00118722, global = 9.41721e-05, cumulative = 0.0117739
smoothSolver:  Solving for omega, Initial residual = 0.0006313, Final residual = 5.60122e-05, No Iterations 4
smoothSolver:  Solving for k, Initial residual = 0.0065681, Final residual = 0.000469075, No Iterations 6
ExecutionTime = 1.03 s  ClockTime = 1 s

scalarTransport execute: age
smoothSolver:  Solving for age, Initial residual = 0.00730977, Final residual = 0.000665425, No Iterations 12

Time = 85

smoothSolver:  Solving for Ux, Initial residual = 0.00530636, Final residual = 0.000528701, No Iterations 5
smoothSolver:  Solving for Uy, Initial residual = 0.00314996, Final residual = 0.00030614, No Iterations 5
GAMG:  Solving for p, Initial residual = 0.00629267, Final residual = 0.000392778, No Iterations 3
time step continuity errors : sum local = 0.00084498, global = -4.64226e-06, cumulative = 0.0117693
smoothSolver:  Solving for omega, Initial residual = 0.000617521, Final residual = 5.3946e-05, No Iterations 4
smoothSolver:  Solving for k, Initial residual = 0.00631657, Final residual = 0.000448303, No Iterations 6
ExecutionTime = 1.05 s  ClockTime = 1 s

scalarTransport execute: age
smoothSolver:  Solving for age, Initial residual = 0.00717389, Final residual = 0.000621769, No Iterations 12

Time = 86

smoothSolver:  Solving for Ux, Initial residual = 0.00515246, Final residual = 0.000506069, No Iterations 5
smoothSolver:  Solving for Uy, Initial residual = 0.00320894, Final residual = 0.000312251, No Iterations 5
GAMG:  Solving for p, Initial residual = 0.0061182, Final residual = 0.000511054, No Iterations 2
time step continuity errors : sum local = 0.00109257, global = 9.10435e-05, cumulative = 0.0118603
smoothSolver:  Solving for omega, Initial residual = 0.000611957, Final residual = 5.17429e-05, No Iterations 4
smoothSolver:  Solving for k, Initial residual = 0.00609844, Final residual = 0.000427436, No Iterations 6
ExecutionTime = 1.06 s  ClockTime = 1 s

scalarTransport execute: age
smoothSolver:  Solving for age, Initial residual = 0.0068213, Final residual = 0.000665519, No Iterations 11

Time = 87

smoothSolver:  Solving for Ux, Initial residual = 0.00489971, Final residual = 0.000482052, No Iterations 5
smoothSolver:  Solving for Uy, Initial residual = 0.00308521, Final residual = 0.000296886, No Iterations 5
GAMG:  Solving for p, Initial residual = 0.00600092, Final residual = 0.000599023, No Iterations 2
time step continuity errors : sum local = 0.0012812, global = 0.000182634, cumulative = 0.0120429
smoothSolver:  Solving for omega, Initial residual = 0.000589973, Final residual = 4.95779e-05, No Iterations 4
smoothSolver:  Solving for k, Initial residual = 0.00586161, Final residual = 0.000407353, No Iterations 6
ExecutionTime = 1.07 s  ClockTime = 1 s

scalarTransport execute: age
smoothSolver:  Solving for age, Initial residual = 0.00650718, Final residual = 0.000616694, No Iterations 11

Time = 88

smoothSolver:  Solving for Ux, Initial residual = 0.00465738, Final residual = 0.000452837, No Iterations 5
smoothSolver:  Solving for Uy, Initial residual = 0.00308801, Final residual = 0.000293767, No Iterations 5
GAMG:  Solving for p, Initial residual = 0.00587406, Final residual = 0.000335314, No Iterations 3
time step continuity errors : sum local = 0.000716056, global = -9.16822e-07, cumulative = 0.012042
smoothSolver:  Solving for omega, Initial residual = 0.000581571, Final residual = 4.7092e-05, No Iterations 4
smoothSolver:  Solving for k, Initial residual = 0.00562646, Final residual = 0.000387859, No Iterations 6
ExecutionTime = 1.08 s  ClockTime = 1 s

scalarTransport execute: age
smoothSolver:  Solving for age, Initial residual = 0.00642872, Final residual = 0.000585749, No Iterations 11

Time = 89

smoothSolver:  Solving for Ux, Initial residual = 0.00451976, Final residual = 0.000432724, No Iterations 5
smoothSolver:  Solving for Uy, Initial residual = 0.00314815, Final residual = 0.000304259, No Iterations 5
GAMG:  Solving for p, Initial residual = 0.00569058, Final residual = 0.000457436, No Iterations 2
time step continuity errors : sum local = 0.000967892, global = 8.55068e-05, cumulative = 0.0121275
smoothSolver:  Solving for omega, Initial residual = 0.000580028, Final residual = 4.49838e-05, No Iterations 4
smoothSolver:  Solving for k, Initial residual = 0.00543202, Final residual = 0.000368614, No Iterations 6
ExecutionTime = 1.09 s  ClockTime = 1 s

scalarTransport execute: age
smoothSolver:  Solving for age, Initial residual = 0.00613472, Final residual = 0.000554081, No Iterations 11

Time = 90

smoothSolver:  Solving for Ux, Initial residual = 0.00421797, Final residual = 0.000405522, No Iterations 5
smoothSolver:  Solving for Uy, Initial residual = 0.00304486, Final residual = 0.000291098, No Iterations 5
GAMG:  Solving for p, Initial residual = 0.00549677, Final residual = 0.000522952, No Iterations 2
time step continuity errors : sum local = 0.00110524, global = 0.00017563, cumulative = 0.0123032
smoothSolver:  Solving for omega, Initial residual = 0.000549111, Final residual = 4.28549e-05, No Iterations 4
smoothSolver:  Solving for k, Initial residual = 0.00520934, Final residual = 0.000350071, No Iterations 6
ExecutionTime = 1.11 s  ClockTime = 1 s

scalarTransport execute: age
smoothSolver:  Solving for age, Initial residual = 0.00584432, Final residual = 0.0005244, No Iterations 11

Time = 91

smoothSolver:  Solving for Ux, Initial residual = 0.00396906, Final residual = 0.000376653, No Iterations 5
smoothSolver:  Solving for Uy, Initial residual = 0.00302311, Final residual = 0.000284707, No Iterations 5
GAMG:  Solving for p, Initial residual = 0.00533364, Final residual = 0.000308478, No Iterations 3
time step continuity errors : sum local = 0.000650575, global = -2.20011e-06, cumulative = 0.012301
smoothSolver:  Solving for omega, Initial residual = 0.000537577, Final residual = 4.0456e-05, No Iterations 4
smoothSolver:  Solving for k, Initial residual = 0.00498285, Final residual = 0.000332135, No Iterations 6
ExecutionTime = 1.12 s  ClockTime = 1 s

scalarTransport execute: age
smoothSolver:  Solving for age, Initial residual = 0.00569286, Final residual = 0.000503395, No Iterations 11

Time = 92

smoothSolver:  Solving for Ux, Initial residual = 0.00383855, Final residual = 0.000355501, No Iterations 5
smoothSolver:  Solving for Uy, Initial residual = 0.00307134, Final residual = 0.000292158, No Iterations 5
GAMG:  Solving for p, Initial residual = 0.00518781, Final residual = 0.000443876, No Iterations 2
time step continuity errors : sum local = 0.000926863, global = 7.95617e-05, cumulative = 0.0123805
smoothSolver:  Solving for omega, Initial residual = 0.00053774, Final residual = 3.88277e-05, No Iterations 4
smoothSolver:  Solving for k, Initial residual = 0.0048028, Final residual = 0.00031478, No Iterations 6
ExecutionTime = 1.13 s  ClockTime = 1 s

scalarTransport execute: age
smoothSolver:  Solving for age, Initial residual = 0.00547257, Final residual = 0.000489712, No Iterations 11

Time = 93

smoothSolver:  Solving for Ux, Initial residual = 0.00354854, Final residual = 0.000330257, No Iterations 5
smoothSolver:  Solving for Uy, Initial residual = 0.00296653, Final residual = 0.000279935, No Iterations 5
GAMG:  Solving for p, Initial residual = 0.0050262, Final residual = 0.000499532, No Iterations 2
time step continuity errors : sum local = 0.00104258, global = 0.000170816, cumulative = 0.0125513
smoothSolver:  Solving for omega, Initial residual = 0.000507683, Final residual = 3.71714e-05, No Iterations 4
smoothSolver:  Solving for k, Initial residual = 0.00458903, Final residual = 0.000298164, No Iterations 6
ExecutionTime = 1.14 s  ClockTime = 1 s

scalarTransport execute: age
smoothSolver:  Solving for age, Initial residual = 0.00524019, Final residual = 0.000477658, No Iterations 11

Time = 94

smoothSolver:  Solving for Ux, Initial residual = 0.0033298, Final residual = 0.000303932, No Iterations 5
smoothSolver:  Solving for Uy, Initial residual = 0.00293365, Final residual = 0.000271454, No Iterations 5
GAMG:  Solving for p, Initial residual = 0.00491306, Final residual = 0.000309404, No Iterations 3
time step continuity errors : sum local = 0.000644906, global = -5.32323e-06, cumulative = 0.012546
smoothSolver:  Solving for omega, Initial residual = 0.000499459, Final residual = 3.52873e-05, No Iterations 4
smoothSolver:  Solving for k, Initial residual = 0.00436821, Final residual = 0.000282245, No Iterations 6
ExecutionTime = 1.15 s  ClockTime = 1 s

scalarTransport execute: age
smoothSolver:  Solving for age, Initial residual = 0.00510924, Final residual = 0.000468997, No Iterations 11

Time = 95

smoothSolver:  Solving for Ux, Initial residual = 0.00321366, Final residual = 0.000282496, No Iterations 5
smoothSolver:  Solving for Uy, Initial residual = 0.00294997, Final residual = 0.00027424, No Iterations 5
GAMG:  Solving for p, Initial residual = 0.00484553, Final residual = 0.000423804, No Iterations 2
time step continuity errors : sum local = 0.000875554, global = 6.35621e-05, cumulative = 0.0126096
smoothSolver:  Solving for omega, Initial residual = 0.00049724, Final residual = 3.43418e-05, No Iterations 4
smoothSolver:  Solving for k, Initial residual = 0.00419428, Final residual = 0.000414694, No Iterations 5
ExecutionTime = 1.16 s  ClockTime = 1 s

scalarTransport execute: age
smoothSolver:  Solving for age, Initial residual = 0.00491849, Final residual = 0.000463466, No Iterations 11

Time = 96

smoothSolver:  Solving for Ux, Initial residual = 0.0029661, Final residual = 0.000260449, No Iterations 5
[...]

Time = 600

smoothSolver:  Solving for Ux, Initial residual = 7.73511e-07, Final residual = 4.98877e-08, No Iterations 5
smoothSolver:  Solving for Uy, Initial residual = 5.46784e-07, Final residual = 4.58574e-08, No Iterations 5
GAMG:  Solving for p, Initial residual = 1.58969e-06, Final residual = 8.50501e-08, No Iterations 3
time step continuity errors : sum local = 2.00689e-07, global = 9.98743e-09, cumulative = 0.0167244
smoothSolver:  Solving for omega, Initial residual = 7.80482e-08, Final residual = 8.81978e-09, No Iterations 3
smoothSolver:  Solving for k, Initial residual = 1.14994e-07, Final residual = 7.92397e-09, No Iterations 5
ExecutionTime = 7.1 s  ClockTime = 7 s

scalarTransport execute: age
smoothSolver:  Solving for age, Initial residual = 0.000336443, Final residual = 3.26392e-05, No Iterations 14

Time = 601

smoothSolver:  Solving for Ux, Initial residual = 7.56374e-07, Final residual = 4.87831e-08, No Iterations 5
smoothSolver:  Solving for Uy, Initial residual = 5.34824e-07, Final residual = 4.48809e-08, No Iterations 5
GAMG:  Solving for p, Initial residual = 1.55518e-06, Final residual = 8.32845e-08, No Iterations 3
time step continuity errors : sum local = 1.96523e-07, global = 9.74353e-09, cumulative = 0.0167244
smoothSolver:  Solving for omega, Initial residual = 7.64518e-08, Final residual = 8.64976e-09, No Iterations 3
smoothSolver:  Solving for k, Initial residual = 1.12755e-07, Final residual = 7.77211e-09, No Iterations 5
ExecutionTime = 7.11 s  ClockTime = 7 s

scalarTransport execute: age
smoothSolver:  Solving for age, Initial residual = 0.000335849, Final residual = 3.25816e-05, No Iterations 14

Time = 602

smoothSolver:  Solving for Ux, Initial residual = 7.39587e-07, Final residual = 4.77007e-08, No Iterations 5
smoothSolver:  Solving for Uy, Initial residual = 5.23115e-07, Final residual = 4.39246e-08, No Iterations 5
GAMG:  Solving for p, Initial residual = 1.52144e-06, Final residual = 8.15533e-08, No Iterations 3
time step continuity errors : sum local = 1.92438e-07, global = 9.50602e-09, cumulative = 0.0167244
smoothSolver:  Solving for omega, Initial residual = 7.48724e-08, Final residual = 8.4808e-09, No Iterations 3
smoothSolver:  Solving for k, Initial residual = 1.10558e-07, Final residual = 7.62282e-09, No Iterations 5
ExecutionTime = 7.12 s  ClockTime = 7 s

scalarTransport execute: age
smoothSolver:  Solving for age, Initial residual = 0.000335257, Final residual = 3.25242e-05, No Iterations 14

Time = 603

smoothSolver:  Solving for Ux, Initial residual = 7.23146e-07, Final residual = 4.66404e-08, No Iterations 5
smoothSolver:  Solving for Uy, Initial residual = 5.11651e-07, Final residual = 4.29885e-08, No Iterations 5
GAMG:  Solving for p, Initial residual = 1.48842e-06, Final residual = 1.48719e-07, No Iterations 2
time step continuity errors : sum local = 3.50925e-07, global = 1.71523e-08, cumulative = 0.0167244
smoothSolver:  Solving for omega, Initial residual = 7.64277e-08, Final residual = 8.32737e-09, No Iterations 3
smoothSolver:  Solving for k, Initial residual = 1.10309e-07, Final residual = 7.51384e-09, No Iterations 5
ExecutionTime = 7.13 s  ClockTime = 7 s

scalarTransport execute: age
smoothSolver:  Solving for age, Initial residual = 0.000334679, Final residual = 3.24691e-05, No Iterations 14

Time = 604

smoothSolver:  Solving for Ux, Initial residual = 7.28086e-07, Final residual = 4.77615e-08, No Iterations 5
smoothSolver:  Solving for Uy, Initial residual = 4.96099e-07, Final residual = 4.11786e-08, No Iterations 5
GAMG:  Solving for p, Initial residual = 1.52649e-06, Final residual = 9.57883e-08, No Iterations 3
time step continuity errors : sum local = 2.26028e-07, global = 8.87453e-09, cumulative = 0.0167244
smoothSolver:  Solving for omega, Initial residual = 7.78062e-08, Final residual = 8.07586e-09, No Iterations 3
smoothSolver:  Solving for k, Initial residual = 1.06637e-07, Final residual = 7.31503e-09, No Iterations 5
ExecutionTime = 7.14 s  ClockTime = 7 s

scalarTransport execute: age
smoothSolver:  Solving for age, Initial residual = 0.000334078, Final residual = 3.24095e-05, No Iterations 14

Time = 605

smoothSolver:  Solving for Ux, Initial residual = 6.9353e-07, Final residual = 4.40723e-08, No Iterations 5
smoothSolver:  Solving for Uy, Initial residual = 4.81274e-07, Final residual = 4.05607e-08, No Iterations 5
GAMG:  Solving for p, Initial residual = 1.44964e-06, Final residual = 1.31124e-07, No Iterations 2
time step continuity errors : sum local = 3.09408e-07, global = 1.72524e-08, cumulative = 0.0167244
smoothSolver:  Solving for omega, Initial residual = 7.75373e-08, Final residual = 8.07109e-09, No Iterations 3
smoothSolver:  Solving for k, Initial residual = 1.06296e-07, Final residual = 7.21446e-09, No Iterations 5
ExecutionTime = 7.16 s  ClockTime = 7 s

scalarTransport execute: age
smoothSolver:  Solving for age, Initial residual = 0.000333494, Final residual = 3.23547e-05, No Iterations 14

Time = 606

smoothSolver:  Solving for Ux, Initial residual = 6.9226e-07, Final residual = 4.50392e-08, No Iterations 5
smoothSolver:  Solving for Uy, Initial residual = 4.75775e-07, Final residual = 3.95241e-08, No Iterations 5
GAMG:  Solving for p, Initial residual = 1.43034e-06, Final residual = 9.54568e-08, No Iterations 3
time step continuity errors : sum local = 2.25246e-07, global = 6.18358e-09, cumulative = 0.0167244
smoothSolver:  Solving for omega, Initial residual = 7.70574e-08, Final residual = 7.72385e-09, No Iterations 3
smoothSolver:  Solving for k, Initial residual = 1.02265e-07, Final residual = 7.02217e-09, No Iterations 5
ExecutionTime = 7.17 s  ClockTime = 7 s

scalarTransport execute: age
smoothSolver:  Solving for age, Initial residual = 0.000332909, Final residual = 3.22964e-05, No Iterations 14

Time = 607

smoothSolver:  Solving for Ux, Initial residual = 6.5533e-07, Final residual = 4.1741e-08, No Iterations 5
smoothSolver:  Solving for Uy, Initial residual = 4.72621e-07, Final residual = 3.97512e-08, No Iterations 5
GAMG:  Solving for p, Initial residual = 1.39643e-06, Final residual = 1.26326e-07, No Iterations 2
time step continuity errors : sum local = 2.98088e-07, global = 1.43064e-08, cumulative = 0.0167245
smoothSolver:  Solving for omega, Initial residual = 7.45344e-08, Final residual = 7.73142e-09, No Iterations 3
smoothSolver:  Solving for k, Initial residual = 1.02059e-07, Final residual = 6.92946e-09, No Iterations 5
ExecutionTime = 7.18 s  ClockTime = 7 s

scalarTransport execute: age
smoothSolver:  Solving for age, Initial residual = 0.000332329, Final residual = 3.22414e-05, No Iterations 14

Time = 608

smoothSolver:  Solving for Ux, Initial residual = 6.55511e-07, Final residual = 4.26798e-08, No Iterations 5
smoothSolver:  Solving for Uy, Initial residual = 4.63531e-07, Final residual = 3.84455e-08, No Iterations 5
GAMG:  Solving for p, Initial residual = 1.3801e-06, Final residual = 8.53213e-08, No Iterations 3
time step continuity errors : sum local = 2.0133e-07, global = 8.1292e-09, cumulative = 0.0167245
smoothSolver:  Solving for omega, Initial residual = 7.22361e-08, Final residual = 7.41297e-09, No Iterations 3
smoothSolver:  Solving for k, Initial residual = 9.83548e-08, Final residual = 6.75253e-09, No Iterations 5
ExecutionTime = 7.19 s  ClockTime = 7 s

scalarTransport execute: age
smoothSolver:  Solving for age, Initial residual = 0.000331742, Final residual = 3.21831e-05, No Iterations 14

Time = 609

smoothSolver:  Solving for Ux, Initial residual = 6.26789e-07, Final residual = 3.97982e-08, No Iterations 5
smoothSolver:  Solving for Uy, Initial residual = 4.5367e-07, Final residual = 3.83177e-08, No Iterations 5
GAMG:  Solving for p, Initial residual = 1.3236e-06, Final residual = 1.21759e-07, No Iterations 2
time step continuity errors : sum local = 2.87312e-07, global = 1.43623e-08, cumulative = 0.0167245
smoothSolver:  Solving for omega, Initial residual = 7.01301e-08, Final residual = 7.40721e-09, No Iterations 3
smoothSolver:  Solving for k, Initial residual = 9.78653e-08, Final residual = 6.66146e-09, No Iterations 5
ExecutionTime = 7.2 s  ClockTime = 7 s

scalarTransport execute: age
smoothSolver:  Solving for age, Initial residual = 0.000331167, Final residual = 3.21284e-05, No Iterations 14

Time = 610

smoothSolver:  Solving for Ux, Initial residual = 6.27607e-07, Final residual = 4.08365e-08, No Iterations 5
smoothSolver:  Solving for Uy, Initial residual = 4.42434e-07, Final residual = 3.68177e-08, No Iterations 5
GAMG:  Solving for p, Initial residual = 1.31568e-06, Final residual = 8.30935e-08, No Iterations 3
time step continuity errors : sum local = 1.96073e-07, global = 7.41934e-09, cumulative = 0.0167245
smoothSolver:  Solving for omega, Initial residual = 6.87697e-08, Final residual = 7.11031e-09, No Iterations 3
smoothSolver:  Solving for k, Initial residual = 9.44848e-08, Final residual = 6.49028e-09, No Iterations 5
ExecutionTime = 7.2 s  ClockTime = 7 s

scalarTransport execute: age
smoothSolver:  Solving for age, Initial residual = 0.000330585, Final residual = 3.20704e-05, No Iterations 14

Time = 611

smoothSolver:  Solving for Ux, Initial residual = 5.99726e-07, Final residual = 3.80552e-08, No Iterations 5
smoothSolver:  Solving for Uy, Initial residual = 4.31445e-07, Final residual = 3.64707e-08, No Iterations 5
GAMG:  Solving for p, Initial residual = 1.26353e-06, Final residual = 1.15784e-07, No Iterations 2
time step continuity errors : sum local = 2.73212e-07, global = 1.34203e-08, cumulative = 0.0167245
smoothSolver:  Solving for omega, Initial residual = 6.69496e-08, Final residual = 7.10583e-09, No Iterations 3
smoothSolver:  Solving for k, Initial residual = 9.40363e-08, Final residual = 6.40283e-09, No Iterations 5
ExecutionTime = 7.21 s  ClockTime = 7 s

scalarTransport execute: age
smoothSolver:  Solving for age, Initial residual = 0.000330014, Final residual = 3.20159e-05, No Iterations 14

Time = 612

smoothSolver:  Solving for Ux, Initial residual = 5.99436e-07, Final residual = 3.90058e-08, No Iterations 5
smoothSolver:  Solving for Uy, Initial residual = 4.2259e-07, Final residual = 3.52133e-08, No Iterations 5
GAMG:  Solving for p, Initial residual = 1.25606e-06, Final residual = 7.916e-08, No Iterations 3
time step continuity errors : sum local = 1.86792e-07, global = 6.94182e-09, cumulative = 0.0167245
smoothSolver:  Solving for omega, Initial residual = 6.57713e-08, Final residual = 6.8279e-09, No Iterations 3
smoothSolver:  Solving for k, Initial residual = 9.08972e-08, Final residual = 6.23847e-09, No Iterations 5
ExecutionTime = 7.24 s  ClockTime = 7 s

scalarTransport execute: age
smoothSolver:  Solving for age, Initial residual = 0.000329436, Final residual = 3.19583e-05, No Iterations 14

Time = 613

smoothSolver:  Solving for Ux, Initial residual = 5.72806e-07, Final residual = 3.63884e-08, No Iterations 5
smoothSolver:  Solving for Uy, Initial residual = 4.13804e-07, Final residual = 3.50154e-08, No Iterations 5
GAMG:  Solving for p, Initial residual = 1.20828e-06, Final residual = 1.10359e-07, No Iterations 2
time step continuity errors : sum local = 2.60411e-07, global = 1.26891e-08, cumulative = 0.0167245
smoothSolver:  Solving for omega, Initial residual = 6.41498e-08, Final residual = 6.82864e-09, No Iterations 3
smoothSolver:  Solving for k, Initial residual = 9.0446e-08, Final residual = 6.15422e-09, No Iterations 5
ExecutionTime = 7.25 s  ClockTime = 7 s

scalarTransport execute: age
smoothSolver:  Solving for age, Initial residual = 0.000328869, Final residual = 3.19041e-05, No Iterations 14

Time = 614

smoothSolver:  Solving for Ux, Initial residual = 5.73049e-07, Final residual = 3.73171e-08, No Iterations 5
smoothSolver:  Solving for Uy, Initial residual = 4.04789e-07, Final residual = 3.37408e-08, No Iterations 5
GAMG:  Solving for p, Initial residual = 1.20181e-06, Final residual = 7.57555e-08, No Iterations 3
time step continuity errors : sum local = 1.78758e-07, global = 6.63529e-09, cumulative = 0.0167245
smoothSolver:  Solving for omega, Initial residual = 6.30002e-08, Final residual = 6.56042e-09, No Iterations 3
smoothSolver:  Solving for k, Initial residual = 8.74074e-08, Final residual = 9.87999e-09, No Iterations 4
ExecutionTime = 7.26 s  ClockTime = 7 s

scalarTransport execute: age
smoothSolver:  Solving for age, Initial residual = 0.000328296, Final residual = 3.18469e-05, No Iterations 14

Time = 615

smoothSolver:  Solving for Ux, Initial residual = 5.48133e-07, Final residual = 3.48471e-08, No Iterations 5
smoothSolver:  Solving for Uy, Initial residual = 3.95753e-07, Final residual = 3.34928e-08, No Iterations 5
GAMG:  Solving for p, Initial residual = 1.15769e-06, Final residual = 1.05597e-07, No Iterations 2
time step continuity errors : sum local = 2.49176e-07, global = 1.20912e-08, cumulative = 0.0167245
smoothSolver:  Solving for omega, Initial residual = 6.13395e-08, Final residual = 6.5511e-09, No Iterations 3
smoothSolver:  Solving for k, Initial residual = 8.72208e-08, Final residual = 9.78713e-09, No Iterations 4
ExecutionTime = 7.27 s  ClockTime = 7 s

scalarTransport execute: age
smoothSolver:  Solving for age, Initial residual = 0.000327732, Final residual = 3.17931e-05, No Iterations 14

Time = 616

smoothSolver:  Solving for Ux, Initial residual = 5.48638e-07, Final residual = 3.57693e-08, No Iterations 5
smoothSolver:  Solving for Uy, Initial residual = 3.86617e-07, Final residual = 3.22321e-08, No Iterations 5
GAMG:  Solving for p, Initial residual = 1.15028e-06, Final residual = 7.28141e-08, No Iterations 3
time step continuity errors : sum local = 1.71818e-07, global = 6.27069e-09, cumulative = 0.0167245
smoothSolver:  Solving for omega, Initial residual = 6.02058e-08, Final residual = 6.28346e-09, No Iterations 3
smoothSolver:  Solving for k, Initial residual = 8.45509e-08, Final residual = 9.5652e-09, No Iterations 4
ExecutionTime = 7.28 s  ClockTime = 7 s

scalarTransport execute: age
smoothSolver:  Solving for age, Initial residual = 0.000327163, Final residual = 3.17364e-05, No Iterations 14

Time = 617

smoothSolver:  Solving for Ux, Initial residual = 5.24372e-07, Final residual = 3.33636e-08, No Iterations 5
smoothSolver:  Solving for Uy, Initial residual = 3.78229e-07, Final residual = 3.20447e-08, No Iterations 5
GAMG:  Solving for p, Initial residual = 1.10989e-06, Final residual = 1.0093e-07, No Iterations 2
time step continuity errors : sum local = 2.38162e-07, global = 1.14777e-08, cumulative = 0.0167246
smoothSolver:  Solving for omega, Initial residual = 5.87362e-08, Final residual = 6.28748e-09, No Iterations 3
smoothSolver:  Solving for k, Initial residual = 8.43188e-08, Final residual = 9.46913e-09, No Iterations 4
ExecutionTime = 7.29 s  ClockTime = 7 s

scalarTransport execute: age
smoothSolver:  Solving for age, Initial residual = 0.000326601, Final residual = 3.16828e-05, No Iterations 14

Time = 618

smoothSolver:  Solving for Ux, Initial residual = 5.24751e-07, Final residual = 3.42432e-08, No Iterations 5
smoothSolver:  Solving for Uy, Initial residual = 3.69534e-07, Final residual = 3.08327e-08, No Iterations 5
GAMG:  Solving for p, Initial residual = 1.1012e-06, Final residual = 6.98107e-08, No Iterations 3
time step continuity errors : sum local = 1.64731e-07, global = 5.97417e-09, cumulative = 0.0167246
smoothSolver:  Solving for omega, Initial residual = 5.76797e-08, Final residual = 6.03008e-09, No Iterations 3
smoothSolver:  Solving for k, Initial residual = 8.17082e-08, Final residual = 9.24857e-09, No Iterations 4
ExecutionTime = 7.3 s  ClockTime = 7 s

scalarTransport execute: age
smoothSolver:  Solving for age, Initial residual = 0.000326036, Final residual = 3.16266e-05, No Iterations 14

Time = 619

smoothSolver:  Solving for Ux, Initial residual = 5.01247e-07, Final residual = 3.19108e-08, No Iterations 5
smoothSolver:  Solving for Uy, Initial residual = 3.61649e-07, Final residual = 3.06851e-08, No Iterations 5
GAMG:  Solving for p, Initial residual = 1.06304e-06, Final residual = 9.64787e-08, No Iterations 2
time step continuity errors : sum local = 2.27659e-07, global = 1.08929e-08, cumulative = 0.0167246
smoothSolver:  Solving for omega, Initial residual = 5.62757e-08, Final residual = 6.03763e-09, No Iterations 3
smoothSolver:  Solving for k, Initial residual = 8.14355e-08, Final residual = 9.1496e-09, No Iterations 4
ExecutionTime = 7.32 s  ClockTime = 7 s

scalarTransport execute: age
smoothSolver:  Solving for age, Initial residual = 0.000325478, Final residual = 3.15733e-05, No Iterations 14

Time = 620

smoothSolver:  Solving for Ux, Initial residual = 5.01602e-07, Final residual = 3.27546e-08, No Iterations 5
smoothSolver:  Solving for Uy, Initial residual = 3.5338e-07, Final residual = 2.95171e-08, No Iterations 5
GAMG:  Solving for p, Initial residual = 1.05371e-06, Final residual = 6.6807e-08, No Iterations 3
time step continuity errors : sum local = 1.57643e-07, global = 5.73285e-09, cumulative = 0.0167246
smoothSolver:  Solving for omega, Initial residual = 5.52612e-08, Final residual = 5.78737e-09, No Iterations 3
smoothSolver:  Solving for k, Initial residual = 7.88929e-08, Final residual = 8.9311e-09, No Iterations 4
ExecutionTime = 7.33 s  ClockTime = 7 s

scalarTransport execute: age
smoothSolver:  Solving for age, Initial residual = 0.000324917, Final residual = 3.15175e-05, No Iterations 14

Time = 621

smoothSolver:  Solving for Ux, Initial residual = 4.78949e-07, Final residual = 3.04966e-08, No Iterations 5
smoothSolver:  Solving for Uy, Initial residual = 3.45772e-07, Final residual = 2.93846e-08, No Iterations 5
GAMG:  Solving for p, Initial residual = 1.01733e-06, Final residual = 9.22513e-08, No Iterations 2
time step continuity errors : sum local = 2.17684e-07, global = 1.0342e-08, cumulative = 0.0167246
smoothSolver:  Solving for omega, Initial residual = 5.3892e-08, Final residual = 5.79491e-09, No Iterations 3
smoothSolver:  Solving for k, Initial residual = 7.85824e-08, Final residual = 8.83038e-09, No Iterations 4
ExecutionTime = 7.34 s  ClockTime = 7 s

scalarTransport execute: age
smoothSolver:  Solving for age, Initial residual = 0.000324362, Final residual = 3.14645e-05, No Iterations 14

Time = 622

smoothSolver:  Solving for Ux, Initial residual = 4.79301e-07, Final residual = 3.13112e-08, No Iterations 5
smoothSolver:  Solving for Uy, Initial residual = 3.3803e-07, Final residual = 2.82733e-08, No Iterations 5
GAMG:  Solving for p, Initial residual = 1.00788e-06, Final residual = 6.39039e-08, No Iterations 3
time step continuity errors : sum local = 1.50793e-07, global = 5.50643e-09, cumulative = 0.0167246
smoothSolver:  Solving for omega, Initial residual = 5.29278e-08, Final residual = 5.5525e-09, No Iterations 3
smoothSolver:  Solving for k, Initial residual = 7.61173e-08, Final residual = 8.61507e-09, No Iterations 4
ExecutionTime = 7.35 s  ClockTime = 7 s

scalarTransport execute: age
smoothSolver:  Solving for age, Initial residual = 0.000323804, Final residual = 3.14091e-05, No Iterations 14

Time = 623

smoothSolver:  Solving for Ux, Initial residual = 4.57546e-07, Final residual = 2.91308e-08, No Iterations 5
smoothSolver:  Solving for Uy, Initial residual = 3.30684e-07, Final residual = 2.8147e-08, No Iterations 5
GAMG:  Solving for p, Initial residual = 9.7335e-07, Final residual = 8.8228e-08, No Iterations 2
time step continuity errors : sum local = 2.08191e-07, global = 9.8126e-09, cumulative = 0.0167246
smoothSolver:  Solving for omega, Initial residual = 5.15943e-08, Final residual = 5.55955e-09, No Iterations 3
smoothSolver:  Solving for k, Initial residual = 7.57786e-08, Final residual = 8.51411e-09, No Iterations 4
ExecutionTime = 7.36 s  ClockTime = 7 s


SIMPLE solution converged in 623 iterations

scalarTransport execute: age
smoothSolver:  Solving for age, Initial residual = 0.000323252, Final residual = 3.13563e-05, No Iterations 14

End

