/*---------------------------------------------------------------------------*\
| =========                 |                                                 |
| \\      /  F ield         | OpenFOAM: The Open Source CFD Toolbox           |
|  \\    /   O peration     | Version:  v2012                                 |
|   \\  /    A nd           | Website:  www.openfoam.com                      |
|    \\/     M anipulation  |                                                 |
\*---------------------------------------------------------------------------*/
Build  : _7bdb509494-20201222 OPENFOAM=2012
Arch   : "LSB;label=32;scalar=64"
Exec   : simpleFoam
Date   : Feb 23 2023
Time   : 10:28:54
Host   : johnsDesktop
PID    : 32513
I/O    : uncollated
Case   : /home/john/of_runs/cases/0_86_643_6
nProcs : 1
trapFpe: Floating point exception trapping enabled (FOAM_SIGFPE).
fileModificationChecking : Monitoring run-time modified files using timeStampMaster (fileModificationSkew 5, maxFileModificationPolls 20)
allowSystemOperations : Allowing user-supplied system call operations

// * * * * * * * * * * * * * * * * * * * * * * * * * * * * * * * * * * * * * //
Create time

Create mesh for time = 0


SIMPLE: convergence criteria
    field p	 tolerance 1e-06
    field U	 tolerance 1e-06
    field "(k|epsilon|omega|f|v2|age)"	 tolerance 1e-05

Reading field p

Reading field U

Reading/calculating face flux field phi

Selecting incompressible transport model Newtonian
Selecting turbulence model type RAS
Selecting RAS turbulence model kOmegaSST
Selecting patchDistMethod meshWave
RAS
{
    RASModel        kOmegaSST;
    turbulence      on;
    printCoeffs     on;
    alphaK1         0.85;
    alphaK2         1;
    alphaOmega1     0.5;
    alphaOmega2     0.856;
    gamma1          0.555556;
    gamma2          0.44;
    beta1           0.075;
    beta2           0.0828;
    betaStar        0.09;
    a1              0.31;
    b1              1;
    c1              10;
    F3              false;
    decayControl    false;
    kInf            0;
    omegaInf        0;
}

No MRF models present

No finite volume options present

Starting time loop

Selecting finite volume options type scalarSemiImplicitSource
    Source: unitySource
    - selecting all cells
    - selected 6018 cell(s) with volume 0.03157
Time = 1

smoothSolver:  Solving for Ux, Initial residual = 0, Final residual = 0, No Iterations 0
smoothSolver:  Solving for Uy, Initial residual = 1, Final residual = 0.0356206, No Iterations 2
GAMG:  Solving for p, Initial residual = 1, Final residual = 0.0884774, No Iterations 9
time step continuity errors : sum local = 0.00560516, global = -0.000209325, cumulative = -0.000209325
smoothSolver:  Solving for omega, Initial residual = 0.131715, Final residual = 0.00661891, No Iterations 3
smoothSolver:  Solving for k, Initial residual = 1, Final residual = 0.0702532, No Iterations 3
ExecutionTime = 0.05 s  ClockTime = 0 s

scalarTransport execute: age
smoothSolver:  Solving for age, Initial residual = 1, Final residual = 0.0948905, No Iterations 6

Time = 2

smoothSolver:  Solving for Ux, Initial residual = 0.430729, Final residual = 0.0367314, No Iterations 5
smoothSolver:  Solving for Uy, Initial residual = 0.241945, Final residual = 0.0165254, No Iterations 5
GAMG:  Solving for p, Initial residual = 0.0747373, Final residual = 0.00721414, No Iterations 3
time step continuity errors : sum local = 0.0503803, global = 0.0035918, cumulative = 0.00338247
smoothSolver:  Solving for omega, Initial residual = 0.0708617, Final residual = 0.00531511, No Iterations 3
smoothSolver:  Solving for k, Initial residual = 0.509066, Final residual = 0.0334118, No Iterations 4
ExecutionTime = 0.06 s  ClockTime = 0 s

scalarTransport execute: age
smoothSolver:  Solving for age, Initial residual = 0.516237, Final residual = 0.0509723, No Iterations 6

Time = 3

smoothSolver:  Solving for Ux, Initial residual = 0.220877, Final residual = 0.0209333, No Iterations 4
smoothSolver:  Solving for Uy, Initial residual = 0.110686, Final residual = 0.00938869, No Iterations 4
GAMG:  Solving for p, Initial residual = 0.0657026, Final residual = 0.00540534, No Iterations 3
time step continuity errors : sum local = 0.030472, global = 0.00429922, cumulative = 0.0076817
smoothSolver:  Solving for omega, Initial residual = 0.0254322, Final residual = 0.00176211, No Iterations 4
smoothSolver:  Solving for k, Initial residual = 0.329352, Final residual = 0.0282283, No Iterations 4
ExecutionTime = 0.08 s  ClockTime = 0 s

scalarTransport execute: age
smoothSolver:  Solving for age, Initial residual = 0.313324, Final residual = 0.0287954, No Iterations 7

Time = 4

smoothSolver:  Solving for Ux, Initial residual = 0.146085, Final residual = 0.0111546, No Iterations 4
smoothSolver:  Solving for Uy, Initial residual = 0.0833103, Final residual = 0.00671238, No Iterations 4
GAMG:  Solving for p, Initial residual = 0.0676265, Final residual = 0.00560583, No Iterations 2
time step continuity errors : sum local = 0.025901, global = 0.00371472, cumulative = 0.0113964
smoothSolver:  Solving for omega, Initial residual = 0.017932, Final residual = 0.00117708, No Iterations 4
smoothSolver:  Solving for k, Initial residual = 0.247396, Final residual = 0.0241017, No Iterations 4
ExecutionTime = 0.09 s  ClockTime = 0 s

scalarTransport execute: age
smoothSolver:  Solving for age, Initial residual = 0.212674, Final residual = 0.0199413, No Iterations 7

Time = 5

smoothSolver:  Solving for Ux, Initial residual = 0.124475, Final residual = 0.00976196, No Iterations 4
smoothSolver:  Solving for Uy, Initial residual = 0.0759258, Final residual = 0.00697514, No Iterations 4
GAMG:  Solving for p, Initial residual = 0.0654591, Final residual = 0.00311628, No Iterations 3
time step continuity errors : sum local = 0.0146177, global = 0.000965417, cumulative = 0.0123618
smoothSolver:  Solving for omega, Initial residual = 0.0120573, Final residual = 0.000796466, No Iterations 4
smoothSolver:  Solving for k, Initial residual = 0.189155, Final residual = 0.0117894, No Iterations 5
ExecutionTime = 0.1 s  ClockTime = 0 s

scalarTransport execute: age
smoothSolver:  Solving for age, Initial residual = 0.157955, Final residual = 0.0146541, No Iterations 8

Time = 6

smoothSolver:  Solving for Ux, Initial residual = 0.114472, Final residual = 0.00999915, No Iterations 4
smoothSolver:  Solving for Uy, Initial residual = 0.069925, Final residual = 0.00451403, No Iterations 5
GAMG:  Solving for p, Initial residual = 0.0566082, Final residual = 0.00257318, No Iterations 3
time step continuity errors : sum local = 0.0122502, global = 0.000148436, cumulative = 0.0125103
smoothSolver:  Solving for omega, Initial residual = 0.00916267, Final residual = 0.00056893, No Iterations 4
smoothSolver:  Solving for k, Initial residual = 0.148974, Final residual = 0.00966766, No Iterations 5
ExecutionTime = 0.11 s  ClockTime = 0 s

scalarTransport execute: age
smoothSolver:  Solving for age, Initial residual = 0.123085, Final residual = 0.010556, No Iterations 9

Time = 7

smoothSolver:  Solving for Ux, Initial residual = 0.104647, Final residual = 0.00947635, No Iterations 4
smoothSolver:  Solving for Uy, Initial residual = 0.0676639, Final residual = 0.00455585, No Iterations 5
GAMG:  Solving for p, Initial residual = 0.0520237, Final residual = 0.00250052, No Iterations 3
time step continuity errors : sum local = 0.0125321, global = -0.000517071, cumulative = 0.0119932
smoothSolver:  Solving for omega, Initial residual = 0.00771286, Final residual = 0.000429125, No Iterations 4
smoothSolver:  Solving for k, Initial residual = 0.12159, Final residual = 0.00795067, No Iterations 5
ExecutionTime = 0.12 s  ClockTime = 0 s

scalarTransport execute: age
smoothSolver:  Solving for age, Initial residual = 0.107069, Final residual = 0.00964193, No Iterations 9

Time = 8

smoothSolver:  Solving for Ux, Initial residual = 0.0972657, Final residual = 0.00888235, No Iterations 4
smoothSolver:  Solving for Uy, Initial residual = 0.0667957, Final residual = 0.00453026, No Iterations 5
GAMG:  Solving for p, Initial residual = 0.0538873, Final residual = 0.00215568, No Iterations 3
time step continuity errors : sum local = 0.0116414, global = -0.000590731, cumulative = 0.0114025
smoothSolver:  Solving for omega, Initial residual = 0.00666946, Final residual = 0.000624405, No Iterations 3
smoothSolver:  Solving for k, Initial residual = 0.102672, Final residual = 0.00658325, No Iterations 5
ExecutionTime = 0.13 s  ClockTime = 0 s

scalarTransport execute: age
smoothSolver:  Solving for age, Initial residual = 0.0983572, Final residual = 0.00906106, No Iterations 9

Time = 9

smoothSolver:  Solving for Ux, Initial residual = 0.0911389, Final residual = 0.00823723, No Iterations 4
smoothSolver:  Solving for Uy, Initial residual = 0.06698, Final residual = 0.00448732, No Iterations 5
GAMG:  Solving for p, Initial residual = 0.0560565, Final residual = 0.00244953, No Iterations 3
time step continuity errors : sum local = 0.013868, global = -0.000785804, cumulative = 0.0106167
smoothSolver:  Solving for omega, Initial residual = 0.00624359, Final residual = 0.000543498, No Iterations 3
smoothSolver:  Solving for k, Initial residual = 0.0896809, Final residual = 0.00543856, No Iterations 5
ExecutionTime = 0.15 s  ClockTime = 0 s

scalarTransport execute: age
smoothSolver:  Solving for age, Initial residual = 0.0948799, Final residual = 0.00866416, No Iterations 9

Time = 10

smoothSolver:  Solving for Ux, Initial residual = 0.0875203, Final residual = 0.00779662, No Iterations 4
smoothSolver:  Solving for Uy, Initial residual = 0.0661336, Final residual = 0.00438214, No Iterations 5
GAMG:  Solving for p, Initial residual = 0.0575974, Final residual = 0.00283639, No Iterations 3
time step continuity errors : sum local = 0.0162046, global = -0.000638723, cumulative = 0.00997794
smoothSolver:  Solving for omega, Initial residual = 0.00625394, Final residual = 0.000499849, No Iterations 3
smoothSolver:  Solving for k, Initial residual = 0.0799958, Final residual = 0.00750774, No Iterations 4
ExecutionTime = 0.16 s  ClockTime = 0 s

scalarTransport execute: age
smoothSolver:  Solving for age, Initial residual = 0.0950488, Final residual = 0.00846079, No Iterations 9

Time = 11

smoothSolver:  Solving for Ux, Initial residual = 0.0849348, Final residual = 0.0073826, No Iterations 4
smoothSolver:  Solving for Uy, Initial residual = 0.0658221, Final residual = 0.00426911, No Iterations 5
GAMG:  Solving for p, Initial residual = 0.0578585, Final residual = 0.00312056, No Iterations 3
time step continuity errors : sum local = 0.0179487, global = -0.000222629, cumulative = 0.00975531
smoothSolver:  Solving for omega, Initial residual = 0.00630898, Final residual = 0.000466629, No Iterations 3
smoothSolver:  Solving for k, Initial residual = 0.0734895, Final residual = 0.00629694, No Iterations 4
ExecutionTime = 0.17 s  ClockTime = 0 s

scalarTransport execute: age
smoothSolver:  Solving for age, Initial residual = 0.0976317, Final residual = 0.00864989, No Iterations 9

Time = 12

smoothSolver:  Solving for Ux, Initial residual = 0.0823098, Final residual = 0.00697906, No Iterations 4
smoothSolver:  Solving for Uy, Initial residual = 0.0651739, Final residual = 0.00408779, No Iterations 5
GAMG:  Solving for p, Initial residual = 0.0593104, Final residual = 0.00303762, No Iterations 3
time step continuity errors : sum local = 0.0176934, global = 0.00036074, cumulative = 0.0101161
smoothSolver:  Solving for omega, Initial residual = 0.00637952, Final residual = 0.000436848, No Iterations 3
smoothSolver:  Solving for k, Initial residual = 0.0691699, Final residual = 0.00535204, No Iterations 4
ExecutionTime = 0.18 s  ClockTime = 0 s

scalarTransport execute: age
smoothSolver:  Solving for age, Initial residual = 0.0989394, Final residual = 0.00900365, No Iterations 9

Time = 13

smoothSolver:  Solving for Ux, Initial residual = 0.0783596, Final residual = 0.00657102, No Iterations 4
smoothSolver:  Solving for Uy, Initial residual = 0.0643986, Final residual = 0.0062913, No Iterations 4
GAMG:  Solving for p, Initial residual = 0.0592029, Final residual = 0.00281188, No Iterations 3
time step continuity errors : sum local = 0.0167772, global = 0.00095015, cumulative = 0.0110662
smoothSolver:  Solving for omega, Initial residual = 0.00618849, Final residual = 0.00041207, No Iterations 3
smoothSolver:  Solving for k, Initial residual = 0.0671319, Final residual = 0.00463246, No Iterations 4
ExecutionTime = 0.19 s  ClockTime = 0 s

scalarTransport execute: age
smoothSolver:  Solving for age, Initial residual = 0.0993421, Final residual = 0.00940098, No Iterations 9

Time = 14

smoothSolver:  Solving for Ux, Initial residual = 0.0747602, Final residual = 0.00608161, No Iterations 4
smoothSolver:  Solving for Uy, Initial residual = 0.0640128, Final residual = 0.00609294, No Iterations 4
GAMG:  Solving for p, Initial residual = 0.0608815, Final residual = 0.00234655, No Iterations 3
time step continuity errors : sum local = 0.0143216, global = 0.0014633, cumulative = 0.0125295
smoothSolver:  Solving for omega, Initial residual = 0.00618443, Final residual = 0.000393018, No Iterations 3
smoothSolver:  Solving for k, Initial residual = 0.0666915, Final residual = 0.00406557, No Iterations 4
ExecutionTime = 0.2 s  ClockTime = 0 s

scalarTransport execute: age
smoothSolver:  Solving for age, Initial residual = 0.101689, Final residual = 0.00988394, No Iterations 9

Time = 15

smoothSolver:  Solving for Ux, Initial residual = 0.0719457, Final residual = 0.00567711, No Iterations 4
smoothSolver:  Solving for Uy, Initial residual = 0.0632926, Final residual = 0.00582719, No Iterations 4
GAMG:  Solving for p, Initial residual = 0.0628383, Final residual = 0.00197296, No Iterations 3
time step continuity errors : sum local = 0.0121815, global = 0.0013598, cumulative = 0.0138893
smoothSolver:  Solving for omega, Initial residual = 0.0062527, Final residual = 0.000376495, No Iterations 3
smoothSolver:  Solving for k, Initial residual = 0.0659308, Final residual = 0.00652789, No Iterations 3
ExecutionTime = 0.21 s  ClockTime = 0 s

scalarTransport execute: age
smoothSolver:  Solving for age, Initial residual = 0.105106, Final residual = 0.0104253, No Iterations 9

Time = 16

smoothSolver:  Solving for Ux, Initial residual = 0.070263, Final residual = 0.00528212, No Iterations 4
smoothSolver:  Solving for Uy, Initial residual = 0.0619917, Final residual = 0.0054968, No Iterations 4
GAMG:  Solving for p, Initial residual = 0.0658869, Final residual = 0.00651357, No Iterations 2
time step continuity errors : sum local = 0.0400307, global = 0.00217196, cumulative = 0.0160613
smoothSolver:  Solving for omega, Initial residual = 0.00607828, Final residual = 0.000346051, No Iterations 3
smoothSolver:  Solving for k, Initial residual = 0.0640445, Final residual = 0.00599053, No Iterations 3
ExecutionTime = 0.22 s  ClockTime = 0 s

scalarTransport execute: age
smoothSolver:  Solving for age, Initial residual = 0.106502, Final residual = 0.0105936, No Iterations 9

Time = 17

smoothSolver:  Solving for Ux, Initial residual = 0.069102, Final residual = 0.00499048, No Iterations 4
smoothSolver:  Solving for Uy, Initial residual = 0.0600985, Final residual = 0.00514802, No Iterations 4
GAMG:  Solving for p, Initial residual = 0.0690983, Final residual = 0.00249725, No Iterations 3
time step continuity errors : sum local = 0.0155248, global = 0.00137383, cumulative = 0.0174351
smoothSolver:  Solving for omega, Initial residual = 0.00619558, Final residual = 0.000327971, No Iterations 3
smoothSolver:  Solving for k, Initial residual = 0.0644257, Final residual = 0.00552741, No Iterations 3
ExecutionTime = 0.23 s  ClockTime = 0 s

scalarTransport execute: age
smoothSolver:  Solving for age, Initial residual = 0.107923, Final residual = 0.00957844, No Iterations 10

Time = 18

smoothSolver:  Solving for Ux, Initial residual = 0.0675934, Final residual = 0.00456113, No Iterations 4
smoothSolver:  Solving for Uy, Initial residual = 0.058022, Final residual = 0.00458137, No Iterations 4
GAMG:  Solving for p, Initial residual = 0.0694778, Final residual = 0.00692304, No Iterations 2
time step continuity errors : sum local = 0.0418288, global = 0.00183535, cumulative = 0.0192704
smoothSolver:  Solving for omega, Initial residual = 0.00592775, Final residual = 0.000290554, No Iterations 3
smoothSolver:  Solving for k, Initial residual = 0.0619651, Final residual = 0.0049837, No Iterations 3
ExecutionTime = 0.25 s  ClockTime = 0 s

scalarTransport execute: age
smoothSolver:  Solving for age, Initial residual = 0.10672, Final residual = 0.00965616, No Iterations 10

Time = 19

smoothSolver:  Solving for Ux, Initial residual = 0.0653743, Final residual = 0.00426924, No Iterations 4
smoothSolver:  Solving for Uy, Initial residual = 0.0554191, Final residual = 0.00428042, No Iterations 4
GAMG:  Solving for p, Initial residual = 0.0740844, Final residual = 0.0070745, No Iterations 2
time step continuity errors : sum local = 0.0430438, global = 0.00348023, cumulative = 0.0227507
smoothSolver:  Solving for omega, Initial residual = 0.0055727, Final residual = 0.000265346, No Iterations 3
smoothSolver:  Solving for k, Initial residual = 0.0605327, Final residual = 0.00454739, No Iterations 3
ExecutionTime = 0.26 s  ClockTime = 0 s

scalarTransport execute: age
smoothSolver:  Solving for age, Initial residual = 0.104508, Final residual = 0.00958633, No Iterations 10

Time = 20

smoothSolver:  Solving for Ux, Initial residual = 0.0629929, Final residual = 0.00397743, No Iterations 4
smoothSolver:  Solving for Uy, Initial residual = 0.0522749, Final residual = 0.00378529, No Iterations 4
GAMG:  Solving for p, Initial residual = 0.0742993, Final residual = 0.00598299, No Iterations 2
time step continuity errors : sum local = 0.0359363, global = 0.00440921, cumulative = 0.0271599
smoothSolver:  Solving for omega, Initial residual = 0.0053153, Final residual = 0.000244263, No Iterations 3
smoothSolver:  Solving for k, Initial residual = 0.0574364, Final residual = 0.00415941, No Iterations 3
ExecutionTime = 0.27 s  ClockTime = 0 s

scalarTransport execute: age
smoothSolver:  Solving for age, Initial residual = 0.102321, Final residual = 0.00956952, No Iterations 10

Time = 21

smoothSolver:  Solving for Ux, Initial residual = 0.0606652, Final residual = 0.00369906, No Iterations 4
smoothSolver:  Solving for Uy, Initial residual = 0.0491977, Final residual = 0.00331964, No Iterations 4
GAMG:  Solving for p, Initial residual = 0.0744553, Final residual = 0.00582616, No Iterations 2
time step continuity errors : sum local = 0.0338914, global = 0.00391916, cumulative = 0.031079
smoothSolver:  Solving for omega, Initial residual = 0.00491233, Final residual = 0.00021949, No Iterations 3
smoothSolver:  Solving for k, Initial residual = 0.0536662, Final residual = 0.00386382, No Iterations 3
ExecutionTime = 0.28 s  ClockTime = 0 s

scalarTransport execute: age
smoothSolver:  Solving for age, Initial residual = 0.0985397, Final residual = 0.00931663, No Iterations 10

Time = 22

smoothSolver:  Solving for Ux, Initial residual = 0.057743, Final residual = 0.00336882, No Iterations 4
smoothSolver:  Solving for Uy, Initial residual = 0.0462703, Final residual = 0.00298966, No Iterations 4
GAMG:  Solving for p, Initial residual = 0.0756197, Final residual = 0.0056471, No Iterations 2
time step continuity errors : sum local = 0.0311588, global = 0.00354014, cumulative = 0.0346192
smoothSolver:  Solving for omega, Initial residual = 0.00454117, Final residual = 0.000445622, No Iterations 2
smoothSolver:  Solving for k, Initial residual = 0.0496301, Final residual = 0.00365319, No Iterations 3
ExecutionTime = 0.29 s  ClockTime = 0 s

scalarTransport execute: age
smoothSolver:  Solving for age, Initial residual = 0.0940166, Final residual = 0.00874089, No Iterations 10

Time = 23

smoothSolver:  Solving for Ux, Initial residual = 0.0537931, Final residual = 0.00306272, No Iterations 4
smoothSolver:  Solving for Uy, Initial residual = 0.0426084, Final residual = 0.00274323, No Iterations 4
GAMG:  Solving for p, Initial residual = 0.0746301, Final residual = 0.00565421, No Iterations 2
time step continuity errors : sum local = 0.0301987, global = 0.00345162, cumulative = 0.0380708
smoothSolver:  Solving for omega, Initial residual = 0.00442329, Final residual = 0.000429854, No Iterations 2
smoothSolver:  Solving for k, Initial residual = 0.0468093, Final residual = 0.00352715, No Iterations 3
ExecutionTime = 0.3 s  ClockTime = 0 s

scalarTransport execute: age
smoothSolver:  Solving for age, Initial residual = 0.0915257, Final residual = 0.00830256, No Iterations 10

Time = 24

smoothSolver:  Solving for Ux, Initial residual = 0.049877, Final residual = 0.00279991, No Iterations 4
smoothSolver:  Solving for Uy, Initial residual = 0.0394094, Final residual = 0.002557, No Iterations 4
GAMG:  Solving for p, Initial residual = 0.0728265, Final residual = 0.00517707, No Iterations 2
time step continuity errors : sum local = 0.0263106, global = 0.0027734, cumulative = 0.0408442
smoothSolver:  Solving for omega, Initial residual = 0.00410565, Final residual = 0.000189591, No Iterations 3
smoothSolver:  Solving for k, Initial residual = 0.0448056, Final residual = 0.00342321, No Iterations 3
ExecutionTime = 0.31 s  ClockTime = 0 s

scalarTransport execute: age
smoothSolver:  Solving for age, Initial residual = 0.0883327, Final residual = 0.00802709, No Iterations 10

Time = 25

smoothSolver:  Solving for Ux, Initial residual = 0.0458895, Final residual = 0.00261179, No Iterations 4
smoothSolver:  Solving for Uy, Initial residual = 0.0372185, Final residual = 0.0024347, No Iterations 4
GAMG:  Solving for p, Initial residual = 0.0714655, Final residual = 0.00523273, No Iterations 2
time step continuity errors : sum local = 0.0252906, global = 0.00194408, cumulative = 0.0427883
smoothSolver:  Solving for omega, Initial residual = 0.00359881, Final residual = 0.000179083, No Iterations 3
smoothSolver:  Solving for k, Initial residual = 0.0431919, Final residual = 0.00332326, No Iterations 3
ExecutionTime = 0.32 s  ClockTime = 0 s

scalarTransport execute: age
smoothSolver:  Solving for age, Initial residual = 0.0851365, Final residual = 0.00784911, No Iterations 10

Time = 26

smoothSolver:  Solving for Ux, Initial residual = 0.0419568, Final residual = 0.00248366, No Iterations 4
smoothSolver:  Solving for Uy, Initial residual = 0.0354831, Final residual = 0.00238002, No Iterations 4
GAMG:  Solving for p, Initial residual = 0.0697897, Final residual = 0.00544896, No Iterations 2
time step continuity errors : sum local = 0.0256317, global = 0.00101668, cumulative = 0.043805
smoothSolver:  Solving for omega, Initial residual = 0.00333016, Final residual = 0.000170091, No Iterations 3
smoothSolver:  Solving for k, Initial residual = 0.0420448, Final residual = 0.0032485, No Iterations 3
ExecutionTime = 0.33 s  ClockTime = 0 s

scalarTransport execute: age
smoothSolver:  Solving for age, Initial residual = 0.0819809, Final residual = 0.00759707, No Iterations 10

Time = 27

smoothSolver:  Solving for Ux, Initial residual = 0.038445, Final residual = 0.00238564, No Iterations 4
smoothSolver:  Solving for Uy, Initial residual = 0.0345739, Final residual = 0.00241155, No Iterations 4
GAMG:  Solving for p, Initial residual = 0.0656911, Final residual = 0.00533622, No Iterations 2
time step continuity errors : sum local = 0.0249263, global = 3.0515e-05, cumulative = 0.0438355
smoothSolver:  Solving for omega, Initial residual = 0.00315412, Final residual = 0.000165813, No Iterations 3
smoothSolver:  Solving for k, Initial residual = 0.041089, Final residual = 0.00323086, No Iterations 3
ExecutionTime = 0.34 s  ClockTime = 0 s

scalarTransport execute: age
smoothSolver:  Solving for age, Initial residual = 0.0789786, Final residual = 0.007254, No Iterations 10

Time = 28

smoothSolver:  Solving for Ux, Initial residual = 0.0350105, Final residual = 0.00225132, No Iterations 4
smoothSolver:  Solving for Uy, Initial residual = 0.0341503, Final residual = 0.00245983, No Iterations 4
GAMG:  Solving for p, Initial residual = 0.0607772, Final residual = 0.00493511, No Iterations 2
time step continuity errors : sum local = 0.023202, global = -0.000968352, cumulative = 0.0428671
smoothSolver:  Solving for omega, Initial residual = 0.00302144, Final residual = 0.000163947, No Iterations 3
smoothSolver:  Solving for k, Initial residual = 0.0405911, Final residual = 0.0032861, No Iterations 3
ExecutionTime = 0.36 s  ClockTime = 0 s

scalarTransport execute: age
smoothSolver:  Solving for age, Initial residual = 0.0764085, Final residual = 0.0069502, No Iterations 10

Time = 29

smoothSolver:  Solving for Ux, Initial residual = 0.0318417, Final residual = 0.00206134, No Iterations 4
smoothSolver:  Solving for Uy, Initial residual = 0.0335429, Final residual = 0.00252433, No Iterations 4
GAMG:  Solving for p, Initial residual = 0.0583461, Final residual = 0.0045136, No Iterations 2
time step continuity errors : sum local = 0.0214907, global = -0.0017981, cumulative = 0.041069
smoothSolver:  Solving for omega, Initial residual = 0.00291948, Final residual = 0.000163507, No Iterations 3
smoothSolver:  Solving for k, Initial residual = 0.0411026, Final residual = 0.00332893, No Iterations 3
ExecutionTime = 0.37 s  ClockTime = 0 s

scalarTransport execute: age
smoothSolver:  Solving for age, Initial residual = 0.0742995, Final residual = 0.0067005, No Iterations 10

Time = 30

smoothSolver:  Solving for Ux, Initial residual = 0.0290128, Final residual = 0.00185895, No Iterations 4
smoothSolver:  Solving for Uy, Initial residual = 0.0333294, Final residual = 0.00262759, No Iterations 4
GAMG:  Solving for p, Initial residual = 0.0563221, Final residual = 0.00429587, No Iterations 2
time step continuity errors : sum local = 0.02071, global = -0.00221754, cumulative = 0.0388515
smoothSolver:  Solving for omega, Initial residual = 0.00285672, Final residual = 0.000161612, No Iterations 3
smoothSolver:  Solving for k, Initial residual = 0.0412726, Final residual = 0.00329281, No Iterations 3
ExecutionTime = 0.38 s  ClockTime = 0 s

scalarTransport execute: age
smoothSolver:  Solving for age, Initial residual = 0.0726394, Final residual = 0.00657688, No Iterations 10

Time = 31

smoothSolver:  Solving for Ux, Initial residual = 0.0265165, Final residual = 0.00166944, No Iterations 4
smoothSolver:  Solving for Uy, Initial residual = 0.0326755, Final residual = 0.00269584, No Iterations 4
GAMG:  Solving for p, Initial residual = 0.0546691, Final residual = 0.00435674, No Iterations 2
time step continuity errors : sum local = 0.0213117, global = -0.00211936, cumulative = 0.0367321
smoothSolver:  Solving for omega, Initial residual = 0.00287379, Final residual = 0.000158062, No Iterations 3
smoothSolver:  Solving for k, Initial residual = 0.0407457, Final residual = 0.0031542, No Iterations 3
ExecutionTime = 0.39 s  ClockTime = 0 s

scalarTransport execute: age
smoothSolver:  Solving for age, Initial residual = 0.070847, Final residual = 0.00628607, No Iterations 10

Time = 32

smoothSolver:  Solving for Ux, Initial residual = 0.0244035, Final residual = 0.00150451, No Iterations 4
smoothSolver:  Solving for Uy, Initial residual = 0.0315211, Final residual = 0.00266967, No Iterations 4
GAMG:  Solving for p, Initial residual = 0.0530078, Final residual = 0.00460557, No Iterations 2
time step continuity errors : sum local = 0.0229105, global = -0.00151827, cumulative = 0.0352139
smoothSolver:  Solving for omega, Initial residual = 0.00287206, Final residual = 0.000152073, No Iterations 3
smoothSolver:  Solving for k, Initial residual = 0.0395788, Final residual = 0.00296171, No Iterations 3
ExecutionTime = 0.4 s  ClockTime = 0 s

scalarTransport execute: age
smoothSolver:  Solving for age, Initial residual = 0.067577, Final residual = 0.00591392, No Iterations 10

Time = 33

smoothSolver:  Solving for Ux, Initial residual = 0.0229118, Final residual = 0.00137105, No Iterations 4
smoothSolver:  Solving for Uy, Initial residual = 0.0302176, Final residual = 0.00255155, No Iterations 4
GAMG:  Solving for p, Initial residual = 0.0515986, Final residual = 0.00473734, No Iterations 2
time step continuity errors : sum local = 0.0238852, global = -0.000461984, cumulative = 0.0347519
smoothSolver:  Solving for omega, Initial residual = 0.00282816, Final residual = 0.000142771, No Iterations 3
smoothSolver:  Solving for k, Initial residual = 0.0379207, Final residual = 0.00274701, No Iterations 3
ExecutionTime = 0.41 s  ClockTime = 0 s

scalarTransport execute: age
smoothSolver:  Solving for age, Initial residual = 0.0636188, Final residual = 0.00562649, No Iterations 10

Time = 34

smoothSolver:  Solving for Ux, Initial residual = 0.0219862, Final residual = 0.00127726, No Iterations 4
smoothSolver:  Solving for Uy, Initial residual = 0.0287447, Final residual = 0.00235814, No Iterations 4
GAMG:  Solving for p, Initial residual = 0.0497912, Final residual = 0.00454847, No Iterations 2
time step continuity errors : sum local = 0.0231346, global = 0.000924705, cumulative = 0.0356766
smoothSolver:  Solving for omega, Initial residual = 0.00267986, Final residual = 0.000131252, No Iterations 3
smoothSolver:  Solving for k, Initial residual = 0.036054, Final residual = 0.00256978, No Iterations 3
ExecutionTime = 0.42 s  ClockTime = 0 s

scalarTransport execute: age
smoothSolver:  Solving for age, Initial residual = 0.059794, Final residual = 0.00544095, No Iterations 10

Time = 35

smoothSolver:  Solving for Ux, Initial residual = 0.0214441, Final residual = 0.00121447, No Iterations 4
smoothSolver:  Solving for Uy, Initial residual = 0.0266397, Final residual = 0.00212294, No Iterations 4
GAMG:  Solving for p, Initial residual = 0.0478317, Final residual = 0.00299708, No Iterations 2
time step continuity errors : sum local = 0.0153056, global = 0.00186566, cumulative = 0.0375422
smoothSolver:  Solving for omega, Initial residual = 0.00248716, Final residual = 0.000119408, No Iterations 3
smoothSolver:  Solving for k, Initial residual = 0.0338315, Final residual = 0.00242304, No Iterations 3
ExecutionTime = 0.43 s  ClockTime = 0 s

scalarTransport execute: age
smoothSolver:  Solving for age, Initial residual = 0.0558144, Final residual = 0.00524179, No Iterations 10

Time = 36

smoothSolver:  Solving for Ux, Initial residual = 0.0214624, Final residual = 0.00120496, No Iterations 4
smoothSolver:  Solving for Uy, Initial residual = 0.0241613, Final residual = 0.00185453, No Iterations 4
GAMG:  Solving for p, Initial residual = 0.0454295, Final residual = 0.00288556, No Iterations 2
time step continuity errors : sum local = 0.0145126, global = 0.001314, cumulative = 0.0388562
smoothSolver:  Solving for omega, Initial residual = 0.00234843, Final residual = 0.000109964, No Iterations 3
smoothSolver:  Solving for k, Initial residual = 0.0316296, Final residual = 0.00233903, No Iterations 3
ExecutionTime = 0.43 s  ClockTime = 0 s

scalarTransport execute: age
smoothSolver:  Solving for age, Initial residual = 0.0519155, Final residual = 0.00499102, No Iterations 10

Time = 37

smoothSolver:  Solving for Ux, Initial residual = 0.0214709, Final residual = 0.00122935, No Iterations 4
smoothSolver:  Solving for Uy, Initial residual = 0.0227605, Final residual = 0.00164582, No Iterations 4
GAMG:  Solving for p, Initial residual = 0.045296, Final residual = 0.00234386, No Iterations 2
time step continuity errors : sum local = 0.0112051, global = 0.00141679, cumulative = 0.040273
smoothSolver:  Solving for omega, Initial residual = 0.00222627, Final residual = 0.000102899, No Iterations 3
smoothSolver:  Solving for k, Initial residual = 0.030036, Final residual = 0.0022473, No Iterations 3
ExecutionTime = 0.46 s  ClockTime = 0 s

scalarTransport execute: age
smoothSolver:  Solving for age, Initial residual = 0.0484389, Final residual = 0.00478588, No Iterations 10

Time = 38

smoothSolver:  Solving for Ux, Initial residual = 0.0205754, Final residual = 0.0012133, No Iterations 4
smoothSolver:  Solving for Uy, Initial residual = 0.0208977, Final residual = 0.00149979, No Iterations 4
GAMG:  Solving for p, Initial residual = 0.0447983, Final residual = 0.00233654, No Iterations 2
time step continuity errors : sum local = 0.0110767, global = 0.00147888, cumulative = 0.0417519
smoothSolver:  Solving for omega, Initial residual = 0.00231085, Final residual = 0.000220175, No Iterations 2
smoothSolver:  Solving for k, Initial residual = 0.029343, Final residual = 0.00219048, No Iterations 3
ExecutionTime = 0.47 s  ClockTime = 0 s

scalarTransport execute: age
smoothSolver:  Solving for age, Initial residual = 0.0454155, Final residual = 0.00395566, No Iterations 11

Time = 39

smoothSolver:  Solving for Ux, Initial residual = 0.0200291, Final residual = 0.00119265, No Iterations 4
smoothSolver:  Solving for Uy, Initial residual = 0.0187592, Final residual = 0.00125982, No Iterations 4
GAMG:  Solving for p, Initial residual = 0.042933, Final residual = 0.00233556, No Iterations 2
time step continuity errors : sum local = 0.0109426, global = 0.00125977, cumulative = 0.0430117
smoothSolver:  Solving for omega, Initial residual = 0.00211695, Final residual = 9.71664e-05, No Iterations 3
smoothSolver:  Solving for k, Initial residual = 0.0287278, Final residual = 0.00212969, No Iterations 3
ExecutionTime = 0.48 s  ClockTime = 0 s

scalarTransport execute: age
smoothSolver:  Solving for age, Initial residual = 0.0425014, Final residual = 0.00372659, No Iterations 11

Time = 40

smoothSolver:  Solving for Ux, Initial residual = 0.019319, Final residual = 0.00117705, No Iterations 4
smoothSolver:  Solving for Uy, Initial residual = 0.0174149, Final residual = 0.00110926, No Iterations 4
GAMG:  Solving for p, Initial residual = 0.0412743, Final residual = 0.00241651, No Iterations 2
time step continuity errors : sum local = 0.0112083, global = 0.00106798, cumulative = 0.0440797
smoothSolver:  Solving for omega, Initial residual = 0.0018538, Final residual = 8.84998e-05, No Iterations 3
smoothSolver:  Solving for k, Initial residual = 0.0279773, Final residual = 0.00208542, No Iterations 3
ExecutionTime = 0.49 s  ClockTime = 0 s

scalarTransport execute: age
smoothSolver:  Solving for age, Initial residual = 0.0402459, Final residual = 0.00356185, No Iterations 11

Time = 41

smoothSolver:  Solving for Ux, Initial residual = 0.0184951, Final residual = 0.00115109, No Iterations 4
smoothSolver:  Solving for Uy, Initial residual = 0.016582, Final residual = 0.00105635, No Iterations 4
GAMG:  Solving for p, Initial residual = 0.0404654, Final residual = 0.00267869, No Iterations 2
time step continuity errors : sum local = 0.0123751, global = 0.00095836, cumulative = 0.045038
smoothSolver:  Solving for omega, Initial residual = 0.00171857, Final residual = 8.19293e-05, No Iterations 3
smoothSolver:  Solving for k, Initial residual = 0.027098, Final residual = 0.00207129, No Iterations 3
ExecutionTime = 0.5 s  ClockTime = 0 s

scalarTransport execute: age
smoothSolver:  Solving for age, Initial residual = 0.0385996, Final residual = 0.00342586, No Iterations 11

Time = 42

smoothSolver:  Solving for Ux, Initial residual = 0.0178482, Final residual = 0.00111169, No Iterations 4
smoothSolver:  Solving for Uy, Initial residual = 0.016178, Final residual = 0.00105478, No Iterations 4
GAMG:  Solving for p, Initial residual = 0.0397817, Final residual = 0.00293374, No Iterations 2
time step continuity errors : sum local = 0.0135385, global = 0.000876943, cumulative = 0.045915
smoothSolver:  Solving for omega, Initial residual = 0.00160329, Final residual = 7.65951e-05, No Iterations 3
smoothSolver:  Solving for k, Initial residual = 0.026273, Final residual = 0.00205846, No Iterations 3
ExecutionTime = 0.51 s  ClockTime = 0 s

scalarTransport execute: age
smoothSolver:  Solving for age, Initial residual = 0.0378045, Final residual = 0.00330716, No Iterations 11

Time = 43

smoothSolver:  Solving for Ux, Initial residual = 0.0174611, Final residual = 0.00106758, No Iterations 4
smoothSolver:  Solving for Uy, Initial residual = 0.0160684, Final residual = 0.00108833, No Iterations 4
GAMG:  Solving for p, Initial residual = 0.0396668, Final residual = 0.00319143, No Iterations 2
time step continuity errors : sum local = 0.0147279, global = 0.000812347, cumulative = 0.0467273
smoothSolver:  Solving for omega, Initial residual = 0.00156272, Final residual = 7.28824e-05, No Iterations 3
smoothSolver:  Solving for k, Initial residual = 0.025605, Final residual = 0.00204517, No Iterations 3
ExecutionTime = 0.52 s  ClockTime = 0 s

scalarTransport execute: age
smoothSolver:  Solving for age, Initial residual = 0.0373905, Final residual = 0.00370781, No Iterations 10

Time = 44

smoothSolver:  Solving for Ux, Initial residual = 0.0170718, Final residual = 0.00102121, No Iterations 4
smoothSolver:  Solving for Uy, Initial residual = 0.0161555, Final residual = 0.0011267, No Iterations 4
GAMG:  Solving for p, Initial residual = 0.0400656, Final residual = 0.00340748, No Iterations 2
time step continuity errors : sum local = 0.0157342, global = 0.000757243, cumulative = 0.0474846
smoothSolver:  Solving for omega, Initial residual = 0.00157119, Final residual = 7.08835e-05, No Iterations 3
smoothSolver:  Solving for k, Initial residual = 0.0249984, Final residual = 0.00200655, No Iterations 3
ExecutionTime = 0.53 s  ClockTime = 0 s

scalarTransport execute: age
smoothSolver:  Solving for age, Initial residual = 0.0371114, Final residual = 0.00359286, No Iterations 10

Time = 45

smoothSolver:  Solving for Ux, Initial residual = 0.0166323, Final residual = 0.000968955, No Iterations 4
smoothSolver:  Solving for Uy, Initial residual = 0.016315, Final residual = 0.00115682, No Iterations 4
GAMG:  Solving for p, Initial residual = 0.0402023, Final residual = 0.00350473, No Iterations 2
time step continuity errors : sum local = 0.0161994, global = 0.00070108, cumulative = 0.0481856
smoothSolver:  Solving for omega, Initial residual = 0.00157819, Final residual = 7.0174e-05, No Iterations 3
smoothSolver:  Solving for k, Initial residual = 0.0242433, Final residual = 0.00193199, No Iterations 3
ExecutionTime = 0.55 s  ClockTime = 0 s

scalarTransport execute: age
smoothSolver:  Solving for age, Initial residual = 0.0369195, Final residual = 0.00346744, No Iterations 10

Time = 46

smoothSolver:  Solving for Ux, Initial residual = 0.0160469, Final residual = 0.000909862, No Iterations 4
smoothSolver:  Solving for Uy, Initial residual = 0.0164291, Final residual = 0.00117488, No Iterations 4
GAMG:  Solving for p, Initial residual = 0.0400435, Final residual = 0.00345168, No Iterations 2
time step continuity errors : sum local = 0.0159505, global = 0.000628879, cumulative = 0.0488145
smoothSolver:  Solving for omega, Initial residual = 0.00158952, Final residual = 6.98405e-05, No Iterations 3
smoothSolver:  Solving for k, Initial residual = 0.0234839, Final residual = 0.00183385, No Iterations 3
ExecutionTime = 0.56 s  ClockTime = 0 s

scalarTransport execute: age
smoothSolver:  Solving for age, Initial residual = 0.0366105, Final residual = 0.00334877, No Iterations 10

Time = 47

smoothSolver:  Solving for Ux, Initial residual = 0.0155056, Final residual = 0.000854154, No Iterations 4
smoothSolver:  Solving for Uy, Initial residual = 0.0163189, Final residual = 0.00116808, No Iterations 4
GAMG:  Solving for p, Initial residual = 0.0395263, Final residual = 0.00325961, No Iterations 2
time step continuity errors : sum local = 0.0150223, global = 0.000537384, cumulative = 0.0493519
smoothSolver:  Solving for omega, Initial residual = 0.00157803, Final residual = 6.91705e-05, No Iterations 3
smoothSolver:  Solving for k, Initial residual = 0.0228072, Final residual = 0.00172782, No Iterations 3
ExecutionTime = 0.57 s  ClockTime = 0 s

scalarTransport execute: age
smoothSolver:  Solving for age, Initial residual = 0.0357684, Final residual = 0.00322353, No Iterations 10

Time = 48

smoothSolver:  Solving for Ux, Initial residual = 0.0149779, Final residual = 0.00148047, No Iterations 3
smoothSolver:  Solving for Uy, Initial residual = 0.015947, Final residual = 0.00114119, No Iterations 4
GAMG:  Solving for p, Initial residual = 0.0382415, Final residual = 0.0028428, No Iterations 2
time step continuity errors : sum local = 0.01304, global = 0.000424189, cumulative = 0.0497761
smoothSolver:  Solving for omega, Initial residual = 0.00152573, Final residual = 6.70741e-05, No Iterations 3
smoothSolver:  Solving for k, Initial residual = 0.0221701, Final residual = 0.00163207, No Iterations 3
ExecutionTime = 0.58 s  ClockTime = 0 s

scalarTransport execute: age
smoothSolver:  Solving for age, Initial residual = 0.0341665, Final residual = 0.00311616, No Iterations 10

Time = 49

smoothSolver:  Solving for Ux, Initial residual = 0.0147053, Final residual = 0.00146074, No Iterations 3
smoothSolver:  Solving for Uy, Initial residual = 0.0154912, Final residual = 0.00109477, No Iterations 4
GAMG:  Solving for p, Initial residual = 0.0378354, Final residual = 0.00263683, No Iterations 2
time step continuity errors : sum local = 0.0120046, global = 0.000301468, cumulative = 0.0500776
smoothSolver:  Solving for omega, Initial residual = 0.00147834, Final residual = 6.56305e-05, No Iterations 3
smoothSolver:  Solving for k, Initial residual = 0.0216902, Final residual = 0.00154744, No Iterations 3
ExecutionTime = 0.59 s  ClockTime = 0 s

scalarTransport execute: age
smoothSolver:  Solving for age, Initial residual = 0.0323945, Final residual = 0.00300662, No Iterations 10

Time = 50

smoothSolver:  Solving for Ux, Initial residual = 0.0144426, Final residual = 0.00143583, No Iterations 3
smoothSolver:  Solving for Uy, Initial residual = 0.0150591, Final residual = 0.00105082, No Iterations 4
GAMG:  Solving for p, Initial residual = 0.037589, Final residual = 0.00245611, No Iterations 2
time step continuity errors : sum local = 0.0110762, global = 0.000175218, cumulative = 0.0502528
smoothSolver:  Solving for omega, Initial residual = 0.00144515, Final residual = 6.57038e-05, No Iterations 3
smoothSolver:  Solving for k, Initial residual = 0.0210866, Final residual = 0.00148222, No Iterations 3
ExecutionTime = 0.6 s  ClockTime = 0 s

scalarTransport execute: age
smoothSolver:  Solving for age, Initial residual = 0.030381, Final residual = 0.00290093, No Iterations 10

Time = 51

smoothSolver:  Solving for Ux, Initial residual = 0.0142247, Final residual = 0.00140184, No Iterations 3
smoothSolver:  Solving for Uy, Initial residual = 0.0147431, Final residual = 0.0010199, No Iterations 4
GAMG:  Solving for p, Initial residual = 0.0372329, Final residual = 0.00234834, No Iterations 2
time step continuity errors : sum local = 0.0104833, global = 0.000104674, cumulative = 0.0503574
smoothSolver:  Solving for omega, Initial residual = 0.00143694, Final residual = 6.67051e-05, No Iterations 3
smoothSolver:  Solving for k, Initial residual = 0.0204828, Final residual = 0.00144038, No Iterations 3
ExecutionTime = 0.61 s  ClockTime = 0 s

scalarTransport execute: age
smoothSolver:  Solving for age, Initial residual = 0.0282379, Final residual = 0.00280654, No Iterations 10

Time = 52

smoothSolver:  Solving for Ux, Initial residual = 0.0139495, Final residual = 0.00136018, No Iterations 3
smoothSolver:  Solving for Uy, Initial residual = 0.0144932, Final residual = 0.000999896, No Iterations 4
GAMG:  Solving for p, Initial residual = 0.0366069, Final residual = 0.00220273, No Iterations 2
time step continuity errors : sum local = 0.00975524, global = 3.38476e-05, cumulative = 0.0503913
smoothSolver:  Solving for omega, Initial residual = 0.00143663, Final residual = 6.77849e-05, No Iterations 3
smoothSolver:  Solving for k, Initial residual = 0.0197999, Final residual = 0.00141406, No Iterations 3
ExecutionTime = 0.62 s  ClockTime = 0 s

scalarTransport execute: age
smoothSolver:  Solving for age, Initial residual = 0.0266837, Final residual = 0.00235424, No Iterations 11

Time = 53

smoothSolver:  Solving for Ux, Initial residual = 0.0137013, Final residual = 0.00132025, No Iterations 3
smoothSolver:  Solving for Uy, Initial residual = 0.0141295, Final residual = 0.000985285, No Iterations 4
GAMG:  Solving for p, Initial residual = 0.0357075, Final residual = 0.00206881, No Iterations 2
time step continuity errors : sum local = 0.00909501, global = -8.42205e-05, cumulative = 0.0503071
smoothSolver:  Solving for omega, Initial residual = 0.00144422, Final residual = 6.86964e-05, No Iterations 3
smoothSolver:  Solving for k, Initial residual = 0.0192713, Final residual = 0.00139699, No Iterations 3
ExecutionTime = 0.63 s  ClockTime = 0 s

scalarTransport execute: age
smoothSolver:  Solving for age, Initial residual = 0.0254421, Final residual = 0.0022458, No Iterations 11

Time = 54

smoothSolver:  Solving for Ux, Initial residual = 0.0135117, Final residual = 0.00128597, No Iterations 3
smoothSolver:  Solving for Uy, Initial residual = 0.0137545, Final residual = 0.000974928, No Iterations 4
GAMG:  Solving for p, Initial residual = 0.0345778, Final residual = 0.00197902, No Iterations 2
time step continuity errors : sum local = 0.00863679, global = -0.000182002, cumulative = 0.0501251
smoothSolver:  Solving for omega, Initial residual = 0.00143717, Final residual = 6.88176e-05, No Iterations 3
smoothSolver:  Solving for k, Initial residual = 0.0188671, Final residual = 0.00138612, No Iterations 3
ExecutionTime = 0.65 s  ClockTime = 0 s

scalarTransport execute: age
smoothSolver:  Solving for age, Initial residual = 0.024244, Final residual = 0.00214373, No Iterations 11

Time = 55

smoothSolver:  Solving for Ux, Initial residual = 0.0132832, Final residual = 0.00126243, No Iterations 3
smoothSolver:  Solving for Uy, Initial residual = 0.0135363, Final residual = 0.000959475, No Iterations 4
GAMG:  Solving for p, Initial residual = 0.033329, Final residual = 0.00188407, No Iterations 2
time step continuity errors : sum local = 0.00819601, global = -0.000286257, cumulative = 0.0498388
smoothSolver:  Solving for omega, Initial residual = 0.00140767, Final residual = 6.76347e-05, No Iterations 3
smoothSolver:  Solving for k, Initial residual = 0.0185671, Final residual = 0.00137866, No Iterations 3
ExecutionTime = 0.66 s  ClockTime = 0 s

scalarTransport execute: age
smoothSolver:  Solving for age, Initial residual = 0.0232601, Final residual = 0.00203652, No Iterations 11

Time = 56

smoothSolver:  Solving for Ux, Initial residual = 0.0130525, Final residual = 0.00124706, No Iterations 3
smoothSolver:  Solving for Uy, Initial residual = 0.0133897, Final residual = 0.000935017, No Iterations 4
GAMG:  Solving for p, Initial residual = 0.0323234, Final residual = 0.00178269, No Iterations 2
time step continuity errors : sum local = 0.0077488, global = -0.000404717, cumulative = 0.0494341
smoothSolver:  Solving for omega, Initial residual = 0.00136951, Final residual = 6.52807e-05, No Iterations 3
smoothSolver:  Solving for k, Initial residual = 0.0182034, Final residual = 0.00136885, No Iterations 3
ExecutionTime = 0.67 s  ClockTime = 0 s

scalarTransport execute: age
smoothSolver:  Solving for age, Initial residual = 0.0223218, Final residual = 0.00194643, No Iterations 11

Time = 57

smoothSolver:  Solving for Ux, Initial residual = 0.0128344, Final residual = 0.00123804, No Iterations 3
smoothSolver:  Solving for Uy, Initial residual = 0.0131369, Final residual = 0.00090559, No Iterations 4
GAMG:  Solving for p, Initial residual = 0.0317737, Final residual = 0.00167993, No Iterations 2
time step continuity errors : sum local = 0.00731423, global = -0.000536547, cumulative = 0.0488976
smoothSolver:  Solving for omega, Initial residual = 0.00133178, Final residual = 6.26871e-05, No Iterations 3
smoothSolver:  Solving for k, Initial residual = 0.0178125, Final residual = 0.00135276, No Iterations 3
ExecutionTime = 0.68 s  ClockTime = 0 s

scalarTransport execute: age
smoothSolver:  Solving for age, Initial residual = 0.0218407, Final residual = 0.00216097, No Iterations 10

Time = 58

smoothSolver:  Solving for Ux, Initial residual = 0.0126633, Final residual = 0.00121875, No Iterations 3
smoothSolver:  Solving for Uy, Initial residual = 0.0127747, Final residual = 0.00087354, No Iterations 4
GAMG:  Solving for p, Initial residual = 0.0312544, Final residual = 0.00159304, No Iterations 2
time step continuity errors : sum local = 0.00695072, global = -0.000587778, cumulative = 0.0483098
smoothSolver:  Solving for omega, Initial residual = 0.00129254, Final residual = 6.03572e-05, No Iterations 3
smoothSolver:  Solving for k, Initial residual = 0.0174752, Final residual = 0.00132864, No Iterations 3
ExecutionTime = 0.69 s  ClockTime = 0 s

scalarTransport execute: age
smoothSolver:  Solving for age, Initial residual = 0.0212872, Final residual = 0.0020643, No Iterations 10

Time = 59

smoothSolver:  Solving for Ux, Initial residual = 0.0123971, Final residual = 0.00118499, No Iterations 3
smoothSolver:  Solving for Uy, Initial residual = 0.012416, Final residual = 0.000837039, No Iterations 4
GAMG:  Solving for p, Initial residual = 0.0303346, Final residual = 0.0015675, No Iterations 2
time step continuity errors : sum local = 0.00687488, global = -0.000587433, cumulative = 0.0477223
smoothSolver:  Solving for omega, Initial residual = 0.0012699, Final residual = 5.90065e-05, No Iterations 3
smoothSolver:  Solving for k, Initial residual = 0.0171731, Final residual = 0.00129969, No Iterations 3
ExecutionTime = 0.7 s  ClockTime = 0 s

scalarTransport execute: age
smoothSolver:  Solving for age, Initial residual = 0.0207223, Final residual = 0.00197551, No Iterations 10

Time = 60

smoothSolver:  Solving for Ux, Initial residual = 0.0119821, Final residual = 0.00112946, No Iterations 3
smoothSolver:  Solving for Uy, Initial residual = 0.0120114, Final residual = 0.000811894, No Iterations 4
GAMG:  Solving for p, Initial residual = 0.0293974, Final residual = 0.0015718, No Iterations 2
time step continuity errors : sum local = 0.00693274, global = -0.000572693, cumulative = 0.0471496
smoothSolver:  Solving for omega, Initial residual = 0.00124385, Final residual = 5.79867e-05, No Iterations 3
smoothSolver:  Solving for k, Initial residual = 0.0169473, Final residual = 0.00127826, No Iterations 3
ExecutionTime = 0.71 s  ClockTime = 0 s

scalarTransport execute: age
smoothSolver:  Solving for age, Initial residual = 0.0204889, Final residual = 0.00190854, No Iterations 10

Time = 61

smoothSolver:  Solving for Ux, Initial residual = 0.0115188, Final residual = 0.00106112, No Iterations 3
smoothSolver:  Solving for Uy, Initial residual = 0.0115271, Final residual = 0.00078201, No Iterations 4
GAMG:  Solving for p, Initial residual = 0.0281879, Final residual = 0.00156685, No Iterations 2
time step continuity errors : sum local = 0.00695356, global = -0.000543041, cumulative = 0.0466066
smoothSolver:  Solving for omega, Initial residual = 0.00119977, Final residual = 5.64702e-05, No Iterations 3
smoothSolver:  Solving for k, Initial residual = 0.0167185, Final residual = 0.00126839, No Iterations 3
ExecutionTime = 0.72 s  ClockTime = 0 s

scalarTransport execute: age
smoothSolver:  Solving for age, Initial residual = 0.0200039, Final residual = 0.00184975, No Iterations 10

Time = 62

smoothSolver:  Solving for Ux, Initial residual = 0.0109848, Final residual = 0.000985335, No Iterations 3
smoothSolver:  Solving for Uy, Initial residual = 0.0110207, Final residual = 0.000746766, No Iterations 4
GAMG:  Solving for p, Initial residual = 0.0267588, Final residual = 0.00156716, No Iterations 2
time step continuity errors : sum local = 0.00698997, global = -0.000508984, cumulative = 0.0460976
smoothSolver:  Solving for omega, Initial residual = 0.00114528, Final residual = 5.38194e-05, No Iterations 3
smoothSolver:  Solving for k, Initial residual = 0.0163763, Final residual = 0.00126003, No Iterations 3
ExecutionTime = 0.74 s  ClockTime = 0 s

scalarTransport execute: age
smoothSolver:  Solving for age, Initial residual = 0.0193261, Final residual = 0.00177694, No Iterations 10

Time = 63

smoothSolver:  Solving for Ux, Initial residual = 0.0104347, Final residual = 0.000912767, No Iterations 3
smoothSolver:  Solving for Uy, Initial residual = 0.0105974, Final residual = 0.000706173, No Iterations 4
GAMG:  Solving for p, Initial residual = 0.0253102, Final residual = 0.00155536, No Iterations 2
time step continuity errors : sum local = 0.00696162, global = -0.000482088, cumulative = 0.0456155
smoothSolver:  Solving for omega, Initial residual = 0.00109039, Final residual = 5.03549e-05, No Iterations 3
smoothSolver:  Solving for k, Initial residual = 0.0160475, Final residual = 0.00124013, No Iterations 3
ExecutionTime = 0.75 s  ClockTime = 0 s

scalarTransport execute: age
smoothSolver:  Solving for age, Initial residual = 0.0185126, Final residual = 0.00170919, No Iterations 10

Time = 64

smoothSolver:  Solving for Ux, Initial residual = 0.00991725, Final residual = 0.000853187, No Iterations 3
smoothSolver:  Solving for Uy, Initial residual = 0.0101836, Final residual = 0.000663998, No Iterations 4
GAMG:  Solving for p, Initial residual = 0.0241117, Final residual = 0.00151937, No Iterations 2
time step continuity errors : sum local = 0.00681358, global = -0.000461384, cumulative = 0.0451542
smoothSolver:  Solving for omega, Initial residual = 0.00105666, Final residual = 4.74979e-05, No Iterations 3
smoothSolver:  Solving for k, Initial residual = 0.0156196, Final residual = 0.00120455, No Iterations 3
ExecutionTime = 0.76 s  ClockTime = 0 s

scalarTransport execute: age
smoothSolver:  Solving for age, Initial residual = 0.0178301, Final residual = 0.00166327, No Iterations 10

Time = 65

smoothSolver:  Solving for Ux, Initial residual = 0.00950594, Final residual = 0.000819175, No Iterations 3
smoothSolver:  Solving for Uy, Initial residual = 0.00979567, Final residual = 0.000626717, No Iterations 4
GAMG:  Solving for p, Initial residual = 0.0232282, Final residual = 0.00148544, No Iterations 2
time step continuity errors : sum local = 0.00666074, global = -0.000441082, cumulative = 0.0447131
smoothSolver:  Solving for omega, Initial residual = 0.00102873, Final residual = 4.61976e-05, No Iterations 3
smoothSolver:  Solving for k, Initial residual = 0.0151375, Final residual = 0.00115384, No Iterations 3
ExecutionTime = 0.77 s  ClockTime = 0 s

scalarTransport execute: age
smoothSolver:  Solving for age, Initial residual = 0.0176305, Final residual = 0.00166738, No Iterations 10

Time = 66

smoothSolver:  Solving for Ux, Initial residual = 0.00916376, Final residual = 0.000811095, No Iterations 3
smoothSolver:  Solving for Uy, Initial residual = 0.00942102, Final residual = 0.00059193, No Iterations 4
GAMG:  Solving for p, Initial residual = 0.0227312, Final residual = 0.00149699, No Iterations 2
time step continuity errors : sum local = 0.00670279, global = -0.000417442, cumulative = 0.0442956
smoothSolver:  Solving for omega, Initial residual = 0.00100663, Final residual = 4.57891e-05, No Iterations 3
smoothSolver:  Solving for k, Initial residual = 0.0146872, Final residual = 0.00109766, No Iterations 3
ExecutionTime = 0.78 s  ClockTime = 0 s

scalarTransport execute: age
smoothSolver:  Solving for age, Initial residual = 0.0175649, Final residual = 0.00167797, No Iterations 10

Time = 67

smoothSolver:  Solving for Ux, Initial residual = 0.00890472, Final residual = 0.000814776, No Iterations 3
smoothSolver:  Solving for Uy, Initial residual = 0.00897621, Final residual = 0.000559564, No Iterations 4
GAMG:  Solving for p, Initial residual = 0.0223685, Final residual = 0.00152131, No Iterations 2
time step continuity errors : sum local = 0.00679429, global = -0.00039162, cumulative = 0.043904
smoothSolver:  Solving for omega, Initial residual = 0.00098896, Final residual = 4.48319e-05, No Iterations 3
smoothSolver:  Solving for k, Initial residual = 0.014286, Final residual = 0.0010562, No Iterations 3
ExecutionTime = 0.79 s  ClockTime = 0 s

scalarTransport execute: age
smoothSolver:  Solving for age, Initial residual = 0.017499, Final residual = 0.00167801, No Iterations 10

Time = 68

smoothSolver:  Solving for Ux, Initial residual = 0.00869246, Final residual = 0.000822463, No Iterations 3
smoothSolver:  Solving for Uy, Initial residual = 0.00854381, Final residual = 0.000530222, No Iterations 4
GAMG:  Solving for p, Initial residual = 0.022237, Final residual = 0.00153325, No Iterations 2
time step continuity errors : sum local = 0.00682213, global = -0.000368058, cumulative = 0.0435359
smoothSolver:  Solving for omega, Initial residual = 0.000960557, Final residual = 4.31757e-05, No Iterations 3
smoothSolver:  Solving for k, Initial residual = 0.0140491, Final residual = 0.00104596, No Iterations 3
ExecutionTime = 0.8 s  ClockTime = 0 s

scalarTransport execute: age
smoothSolver:  Solving for age, Initial residual = 0.0172199, Final residual = 0.00167159, No Iterations 10

Time = 69

smoothSolver:  Solving for Ux, Initial residual = 0.00848794, Final residual = 0.000827535, No Iterations 3
smoothSolver:  Solving for Uy, Initial residual = 0.00815209, Final residual = 0.000501493, No Iterations 4
GAMG:  Solving for p, Initial residual = 0.0221343, Final residual = 0.00159058, No Iterations 2
time step continuity errors : sum local = 0.00704151, global = -0.000352576, cumulative = 0.0431834
smoothSolver:  Solving for omega, Initial residual = 0.000931462, Final residual = 4.12033e-05, No Iterations 3
smoothSolver:  Solving for k, Initial residual = 0.0139324, Final residual = 0.00103859, No Iterations 3
ExecutionTime = 0.81 s  ClockTime = 0 s

scalarTransport execute: age
smoothSolver:  Solving for age, Initial residual = 0.016669, Final residual = 0.00165827, No Iterations 10

Time = 70

smoothSolver:  Solving for Ux, Initial residual = 0.00825359, Final residual = 0.000465158, No Iterations 4
smoothSolver:  Solving for Uy, Initial residual = 0.00783791, Final residual = 0.000475727, No Iterations 4
GAMG:  Solving for p, Initial residual = 0.0225753, Final residual = 0.00181076, No Iterations 2
time step continuity errors : sum local = 0.00796885, global = -0.000353293, cumulative = 0.0428301
smoothSolver:  Solving for omega, Initial residual = 0.000920784, Final residual = 9.11601e-05, No Iterations 2
smoothSolver:  Solving for k, Initial residual = 0.0139055, Final residual = 0.00102476, No Iterations 3
ExecutionTime = 0.82 s  ClockTime = 0 s

scalarTransport execute: age
smoothSolver:  Solving for age, Initial residual = 0.0164624, Final residual = 0.00140078, No Iterations 11

Time = 71

smoothSolver:  Solving for Ux, Initial residual = 0.00797101, Final residual = 0.000794184, No Iterations 3
smoothSolver:  Solving for Uy, Initial residual = 0.00769853, Final residual = 0.000462953, No Iterations 4
GAMG:  Solving for p, Initial residual = 0.0218778, Final residual = 0.0017217, No Iterations 2
time step continuity errors : sum local = 0.00753278, global = -0.000368281, cumulative = 0.0424618
smoothSolver:  Solving for omega, Initial residual = 0.000943283, Final residual = 4.13528e-05, No Iterations 3
smoothSolver:  Solving for k, Initial residual = 0.0135701, Final residual = 0.000995415, No Iterations 3
ExecutionTime = 0.83 s  ClockTime = 0 s

scalarTransport execute: age
smoothSolver:  Solving for age, Initial residual = 0.0161812, Final residual = 0.00138252, No Iterations 11

Time = 72

smoothSolver:  Solving for Ux, Initial residual = 0.00776004, Final residual = 0.000444908, No Iterations 4
smoothSolver:  Solving for Uy, Initial residual = 0.00755018, Final residual = 0.000453474, No Iterations 4
GAMG:  Solving for p, Initial residual = 0.0220366, Final residual = 0.00182073, No Iterations 2
time step continuity errors : sum local = 0.00792348, global = -0.000393611, cumulative = 0.0420682
smoothSolver:  Solving for omega, Initial residual = 0.000911537, Final residual = 3.98414e-05, No Iterations 3
smoothSolver:  Solving for k, Initial residual = 0.0132491, Final residual = 0.000957078, No Iterations 3
ExecutionTime = 0.85 s  ClockTime = 0 s

scalarTransport execute: age
smoothSolver:  Solving for age, Initial residual = 0.0160504, Final residual = 0.00136838, No Iterations 11

Time = 73

smoothSolver:  Solving for Ux, Initial residual = 0.00742123, Final residual = 0.000416799, No Iterations 4
smoothSolver:  Solving for Uy, Initial residual = 0.00744696, Final residual = 0.000450962, No Iterations 4
GAMG:  Solving for p, Initial residual = 0.0214775, Final residual = 0.00158862, No Iterations 2
time step continuity errors : sum local = 0.00688208, global = -0.000416157, cumulative = 0.041652
smoothSolver:  Solving for omega, Initial residual = 0.000892787, Final residual = 3.90533e-05, No Iterations 3
smoothSolver:  Solving for k, Initial residual = 0.0128109, Final residual = 0.000925799, No Iterations 3
ExecutionTime = 0.86 s  ClockTime = 0 s

scalarTransport execute: age
smoothSolver:  Solving for age, Initial residual = 0.0160712, Final residual = 0.00157665, No Iterations 10

Time = 74

smoothSolver:  Solving for Ux, Initial residual = 0.00707558, Final residual = 0.000687374, No Iterations 3
smoothSolver:  Solving for Uy, Initial residual = 0.00726971, Final residual = 0.000445546, No Iterations 4
GAMG:  Solving for p, Initial residual = 0.0200489, Final residual = 0.00119915, No Iterations 2
time step continuity errors : sum local = 0.0051777, global = -0.000409545, cumulative = 0.0412425
smoothSolver:  Solving for omega, Initial residual = 0.000843102, Final residual = 3.71883e-05, No Iterations 3
smoothSolver:  Solving for k, Initial residual = 0.0122435, Final residual = 0.000892235, No Iterations 3
ExecutionTime = 0.87 s  ClockTime = 0 s

scalarTransport execute: age
smoothSolver:  Solving for age, Initial residual = 0.0159571, Final residual = 0.00154873, No Iterations 10

Time = 75

smoothSolver:  Solving for Ux, Initial residual = 0.00681438, Final residual = 0.000655389, No Iterations 3
smoothSolver:  Solving for Uy, Initial residual = 0.00701888, Final residual = 0.000431817, No Iterations 4
GAMG:  Solving for p, Initial residual = 0.0190169, Final residual = 0.00105065, No Iterations 2
time step continuity errors : sum local = 0.00452572, global = -0.000387684, cumulative = 0.0408548
smoothSolver:  Solving for omega, Initial residual = 0.000783193, Final residual = 3.43814e-05, No Iterations 3
smoothSolver:  Solving for k, Initial residual = 0.0116593, Final residual = 0.000849788, No Iterations 3
ExecutionTime = 0.88 s  ClockTime = 0 s

scalarTransport execute: age
smoothSolver:  Solving for age, Initial residual = 0.0155571, Final residual = 0.00154049, No Iterations 10

Time = 76

smoothSolver:  Solving for Ux, Initial residual = 0.006593, Final residual = 0.000624821, No Iterations 3
smoothSolver:  Solving for Uy, Initial residual = 0.00688089, Final residual = 0.000412447, No Iterations 4
GAMG:  Solving for p, Initial residual = 0.0182625, Final residual = 0.000977583, No Iterations 2
time step continuity errors : sum local = 0.00420314, global = -0.000364672, cumulative = 0.0404901
smoothSolver:  Solving for omega, Initial residual = 0.000743134, Final residual = 7.36064e-05, No Iterations 2
smoothSolver:  Solving for k, Initial residual = 0.0111762, Final residual = 0.000800914, No Iterations 3
ExecutionTime = 0.89 s  ClockTime = 0 s

scalarTransport execute: age
smoothSolver:  Solving for age, Initial residual = 0.0152137, Final residual = 0.00132936, No Iterations 11

Time = 77

smoothSolver:  Solving for Ux, Initial residual = 0.00642721, Final residual = 0.000601224, No Iterations 3
smoothSolver:  Solving for Uy, Initial residual = 0.0066993, Final residual = 0.000391913, No Iterations 4
GAMG:  Solving for p, Initial residual = 0.0177483, Final residual = 0.000930691, No Iterations 2
time step continuity errors : sum local = 0.00399348, global = -0.000338164, cumulative = 0.040152
smoothSolver:  Solving for omega, Initial residual = 0.000736601, Final residual = 7.32592e-05, No Iterations 2
smoothSolver:  Solving for k, Initial residual = 0.0106317, Final residual = 0.000740654, No Iterations 3
ExecutionTime = 0.89 s  ClockTime = 0 s

scalarTransport execute: age
smoothSolver:  Solving for age, Initial residual = 0.0146947, Final residual = 0.00129067, No Iterations 11

Time = 78

smoothSolver:  Solving for Ux, Initial residual = 0.00630299, Final residual = 0.000586258, No Iterations 3
smoothSolver:  Solving for Uy, Initial residual = 0.00656344, Final residual = 0.000372404, No Iterations 4
GAMG:  Solving for p, Initial residual = 0.0172832, Final residual = 0.000932485, No Iterations 2
time step continuity errors : sum local = 0.00399226, global = -0.000306155, cumulative = 0.0398458
smoothSolver:  Solving for omega, Initial residual = 0.000714916, Final residual = 3.06223e-05, No Iterations 3
smoothSolver:  Solving for k, Initial residual = 0.010036, Final residual = 0.000671243, No Iterations 3
ExecutionTime = 0.9 s  ClockTime = 0 s

scalarTransport execute: age
smoothSolver:  Solving for age, Initial residual = 0.014429, Final residual = 0.00142713, No Iterations 10

Time = 79

smoothSolver:  Solving for Ux, Initial residual = 0.00616483, Final residual = 0.000571369, No Iterations 3
smoothSolver:  Solving for Uy, Initial residual = 0.0064771, Final residual = 0.000356084, No Iterations 4
GAMG:  Solving for p, Initial residual = 0.0168174, Final residual = 0.000984434, No Iterations 2
time step continuity errors : sum local = 0.00420543, global = -0.000265152, cumulative = 0.0395807
smoothSolver:  Solving for omega, Initial residual = 0.000659985, Final residual = 6.5882e-05, No Iterations 2
smoothSolver:  Solving for k, Initial residual = 0.00949591, Final residual = 0.000610682, No Iterations 3
ExecutionTime = 0.91 s  ClockTime = 0 s

scalarTransport execute: age
smoothSolver:  Solving for age, Initial residual = 0.0141965, Final residual = 0.00138156, No Iterations 10

Time = 80

smoothSolver:  Solving for Ux, Initial residual = 0.00603581, Final residual = 0.000548734, No Iterations 3
smoothSolver:  Solving for Uy, Initial residual = 0.00636048, Final residual = 0.000350098, No Iterations 4
GAMG:  Solving for p, Initial residual = 0.0162471, Final residual = 0.00104502, No Iterations 2
time step continuity errors : sum local = 0.00445824, global = -0.000219465, cumulative = 0.0393612
smoothSolver:  Solving for omega, Initial residual = 0.000639333, Final residual = 2.87303e-05, No Iterations 3
smoothSolver:  Solving for k, Initial residual = 0.00900353, Final residual = 0.000559285, No Iterations 3
ExecutionTime = 0.92 s  ClockTime = 0 s

scalarTransport execute: age
smoothSolver:  Solving for age, Initial residual = 0.0138147, Final residual = 0.00135259, No Iterations 10

Time = 81

smoothSolver:  Solving for Ux, Initial residual = 0.00584019, Final residual = 0.000519712, No Iterations 3
smoothSolver:  Solving for Uy, Initial residual = 0.00614358, Final residual = 0.000351852, No Iterations 4
GAMG:  Solving for p, Initial residual = 0.0154846, Final residual = 0.00107876, No Iterations 2
time step continuity errors : sum local = 0.00459899, global = -0.000180421, cumulative = 0.0391808
smoothSolver:  Solving for omega, Initial residual = 0.000577255, Final residual = 2.66843e-05, No Iterations 3
smoothSolver:  Solving for k, Initial residual = 0.00856777, Final residual = 0.000525989, No Iterations 3
ExecutionTime = 0.95 s  ClockTime = 0 s

scalarTransport execute: age
smoothSolver:  Solving for age, Initial residual = 0.0133222, Final residual = 0.00131005, No Iterations 10

Time = 82

smoothSolver:  Solving for Ux, Initial residual = 0.0056356, Final residual = 0.000496645, No Iterations 3
smoothSolver:  Solving for Uy, Initial residual = 0.00587954, Final residual = 0.000353984, No Iterations 4
GAMG:  Solving for p, Initial residual = 0.0146658, Final residual = 0.00106508, No Iterations 2
time step continuity errors : sum local = 0.0045381, global = -0.00014003, cumulative = 0.0390407
smoothSolver:  Solving for omega, Initial residual = 0.000541789, Final residual = 2.53483e-05, No Iterations 3
smoothSolver:  Solving for k, Initial residual = 0.00827356, Final residual = 0.000514383, No Iterations 3
ExecutionTime = 0.96 s  ClockTime = 0 s

scalarTransport execute: age
smoothSolver:  Solving for age, Initial residual = 0.0127504, Final residual = 0.0012528, No Iterations 10

Time = 83

smoothSolver:  Solving for Ux, Initial residual = 0.00547379, Final residual = 0.000491631, No Iterations 3
smoothSolver:  Solving for Uy, Initial residual = 0.0056337, Final residual = 0.000349652, No Iterations 4
GAMG:  Solving for p, Initial residual = 0.0138716, Final residual = 0.00102316, No Iterations 2
time step continuity errors : sum local = 0.00435837, global = -0.000101481, cumulative = 0.0389393
smoothSolver:  Solving for omega, Initial residual = 0.000519365, Final residual = 2.41667e-05, No Iterations 3
smoothSolver:  Solving for k, Initial residual = 0.00805004, Final residual = 0.000514259, No Iterations 3
ExecutionTime = 0.97 s  ClockTime = 0 s

scalarTransport execute: age
smoothSolver:  Solving for age, Initial residual = 0.0121483, Final residual = 0.00119435, No Iterations 10

Time = 84

smoothSolver:  Solving for Ux, Initial residual = 0.00530931, Final residual = 0.000498288, No Iterations 3
smoothSolver:  Solving for Uy, Initial residual = 0.00539348, Final residual = 0.000344032, No Iterations 4
GAMG:  Solving for p, Initial residual = 0.0132779, Final residual = 0.000980121, No Iterations 2
time step continuity errors : sum local = 0.00417441, global = -6.30529e-05, cumulative = 0.0388762
smoothSolver:  Solving for omega, Initial residual = 0.000510467, Final residual = 2.3554e-05, No Iterations 3
smoothSolver:  Solving for k, Initial residual = 0.00792029, Final residual = 0.000513803, No Iterations 3
ExecutionTime = 0.98 s  ClockTime = 0 s

scalarTransport execute: age
smoothSolver:  Solving for age, Initial residual = 0.0116748, Final residual = 0.0011399, No Iterations 10

Time = 85

smoothSolver:  Solving for Ux, Initial residual = 0.00520253, Final residual = 0.000504664, No Iterations 3
smoothSolver:  Solving for Uy, Initial residual = 0.00528583, Final residual = 0.000336555, No Iterations 4
GAMG:  Solving for p, Initial residual = 0.012791, Final residual = 0.000967344, No Iterations 2
time step continuity errors : sum local = 0.00412064, global = -2.3248e-05, cumulative = 0.038853
smoothSolver:  Solving for omega, Initial residual = 0.00051409, Final residual = 2.34263e-05, No Iterations 3
smoothSolver:  Solving for k, Initial residual = 0.00782764, Final residual = 0.000510639, No Iterations 3
ExecutionTime = 0.99 s  ClockTime = 1 s

scalarTransport execute: age
smoothSolver:  Solving for age, Initial residual = 0.0112679, Final residual = 0.00109609, No Iterations 10

Time = 86

smoothSolver:  Solving for Ux, Initial residual = 0.00510161, Final residual = 0.00049791, No Iterations 3
smoothSolver:  Solving for Uy, Initial residual = 0.0052212, Final residual = 0.000330815, No Iterations 4
GAMG:  Solving for p, Initial residual = 0.0124843, Final residual = 0.000988085, No Iterations 2
time step continuity errors : sum local = 0.00421003, global = 1.9857e-05, cumulative = 0.0388728
smoothSolver:  Solving for omega, Initial residual = 0.000515717, Final residual = 2.31359e-05, No Iterations 3
smoothSolver:  Solving for k, Initial residual = 0.00774399, Final residual = 0.000503298, No Iterations 3
ExecutionTime = 1 s  ClockTime = 1 s

scalarTransport execute: age
smoothSolver:  Solving for age, Initial residual = 0.010915, Final residual = 0.00106422, No Iterations 10

Time = 87

smoothSolver:  Solving for Ux, Initial residual = 0.00494237, Final residual = 0.000476375, No Iterations 3
smoothSolver:  Solving for Uy, Initial residual = 0.00510577, Final residual = 0.000327244, No Iterations 4
GAMG:  Solving for p, Initial residual = 0.0122422, Final residual = 0.000999456, No Iterations 2
time step continuity errors : sum local = 0.00425733, global = 6.74354e-05, cumulative = 0.0389403
smoothSolver:  Solving for omega, Initial residual = 0.000511427, Final residual = 2.24252e-05, No Iterations 3
smoothSolver:  Solving for k, Initial residual = 0.00758188, Final residual = 0.00048634, No Iterations 3
ExecutionTime = 1.01 s  ClockTime = 1 s

scalarTransport execute: age
smoothSolver:  Solving for age, Initial residual = 0.0105873, Final residual = 0.00103913, No Iterations 10

Time = 88

smoothSolver:  Solving for Ux, Initial residual = 0.00476898, Final residual = 0.000447243, No Iterations 3
smoothSolver:  Solving for Uy, Initial residual = 0.00501035, Final residual = 0.000322894, No Iterations 4
GAMG:  Solving for p, Initial residual = 0.0119213, Final residual = 0.00098914, No Iterations 2
time step continuity errors : sum local = 0.00420919, global = 0.000118728, cumulative = 0.039059
smoothSolver:  Solving for omega, Initial residual = 0.000497345, Final residual = 2.17633e-05, No Iterations 3
smoothSolver:  Solving for k, Initial residual = 0.00728008, Final residual = 0.000459284, No Iterations 3
ExecutionTime = 1.02 s  ClockTime = 1 s

scalarTransport execute: age
smoothSolver:  Solving for age, Initial residual = 0.0102322, Final residual = 0.00102109, No Iterations 10

Time = 89

smoothSolver:  Solving for Ux, Initial residual = 0.00455529, Final residual = 0.000419175, No Iterations 3
smoothSolver:  Solving for Uy, Initial residual = 0.00486016, Final residual = 0.000310057, No Iterations 4
GAMG:  Solving for p, Initial residual = 0.0115367, Final residual = 0.000928892, No Iterations 2
time step continuity errors : sum local = 0.00394572, global = 0.000155994, cumulative = 0.039215
smoothSolver:  Solving for omega, Initial residual = 0.000477502, Final residual = 4.74919e-05, No Iterations 2
smoothSolver:  Solving for k, Initial residual = 0.00690966, Final residual = 0.00042919, No Iterations 3
ExecutionTime = 1.03 s  ClockTime = 1 s

scalarTransport execute: age
smoothSolver:  Solving for age, Initial residual = 0.00994834, Final residual = 0.000869269, No Iterations 11

Time = 90

smoothSolver:  Solving for Ux, Initial residual = 0.00436693, Final residual = 0.000402315, No Iterations 3
smoothSolver:  Solving for Uy, Initial residual = 0.00465886, Final residual = 0.000291569, No Iterations 4
GAMG:  Solving for p, Initial residual = 0.011185, Final residual = 0.000879879, No Iterations 2
time step continuity errors : sum local = 0.0037268, global = 0.000177079, cumulative = 0.0393921
smoothSolver:  Solving for omega, Initial residual = 0.000473117, Final residual = 2.05359e-05, No Iterations 3
smoothSolver:  Solving for k, Initial residual = 0.00650834, Final residual = 0.000399367, No Iterations 3
ExecutionTime = 1.04 s  ClockTime = 1 s

scalarTransport execute: age
smoothSolver:  Solving for age, Initial residual = 0.00969252, Final residual = 0.000848994, No Iterations 11

Time = 91

smoothSolver:  Solving for Ux, Initial residual = 0.00421771, Final residual = 0.000393475, No Iterations 3
smoothSolver:  Solving for Uy, Initial residual = 0.00444262, Final residual = 0.000273576, No Iterations 4
GAMG:  Solving for p, Initial residual = 0.0107711, Final residual = 0.000863035, No Iterations 2
time step continuity errors : sum local = 0.0036418, global = 0.000181386, cumulative = 0.0395734
smoothSolver:  Solving for omega, Initial residual = 0.000455425, Final residual = 4.40795e-05, No Iterations 2
smoothSolver:  Solving for k, Initial residual = 0.00618979, Final residual = 0.000371427, No Iterations 3
ExecutionTime = 1.06 s  ClockTime = 1 s

scalarTransport execute: age
smoothSolver:  Solving for age, Initial residual = 0.00951109, Final residual = 0.000845301, No Iterations 11

Time = 92

smoothSolver:  Solving for Ux, Initial residual = 0.00407501, Final residual = 0.000387141, No Iterations 3
smoothSolver:  Solving for Uy, Initial residual = 0.00424268, Final residual = 0.000254681, No Iterations 4
GAMG:  Solving for p, Initial residual = 0.0103182, Final residual = 0.000868857, No Iterations 2
time step continuity errors : sum local = 0.00365196, global = 0.000167571, cumulative = 0.039741
smoothSolver:  Solving for omega, Initial residual = 0.00046469, Final residual = 4.59903e-05, No Iterations 2
smoothSolver:  Solving for k, Initial residual = 0.00589781, Final residual = 0.000349693, No Iterations 3
ExecutionTime = 1.07 s  ClockTime = 1 s

scalarTransport execute: age
smoothSolver:  Solving for age, Initial residual = 0.00935356, Final residual = 0.000844498, No Iterations 11

Time = 93

smoothSolver:  Solving for Ux, Initial residual = 0.00391029, Final residual = 0.000373296, No Iterations 3
smoothSolver:  Solving for Uy, Initial residual = 0.00399275, Final residual = 0.000236245, No Iterations 4
GAMG:  Solving for p, Initial residual = 0.00973729, Final residual = 0.000847016, No Iterations 2
time step continuity errors : sum local = 0.00354663, global = 0.000134848, cumulative = 0.0398759
smoothSolver:  Solving for omega, Initial residual = 0.000458882, Final residual = 2.0077e-05, No Iterations 3
smoothSolver:  Solving for k, Initial residual = 0.0055322, Final residual = 0.000328744, No Iterations 3
ExecutionTime = 1.08 s  ClockTime = 1 s

scalarTransport execute: age
smoothSolver:  Solving for age, Initial residual = 0.00911812, Final residual = 0.000843816, No Iterations 11

Time = 94

smoothSolver:  Solving for Ux, Initial residual = 0.00371496, Final residual = 0.000352415, No Iterations 3
smoothSolver:  Solving for Uy, Initial residual = 0.00373306, Final residual = 0.000222156, No Iterations 4
GAMG:  Solving for p, Initial residual = 0.00908631, Final residual = 0.00075746, No Iterations 2
time step continuity errors : sum local = 0.00316031, global = 8.35236e-05, cumulative = 0.0399594
smoothSolver:  Solving for omega, Initial residual = 0.000421285, Final residual = 4.10527e-05, No Iterations 2
smoothSolver:  Solving for k, Initial residual = 0.00514221, Final residual = 0.000310227, No Iterations 3
ExecutionTime = 1.09 s  ClockTime = 1 s

scalarTransport execute: age
smoothSolver:  Solving for age, Initial residual = 0.00882604, Final residual = 0.00083884, No Iterations 11

Time = 95

smoothSolver:  Solving for Ux, Initial residual = 0.00348056, Final residual = 0.000332836, No Iterations 3
smoothSolver:  Solving for Uy, Initial residual = 0.00345999, Final residual = 0.000209044, No Iterations 4
GAMG:  Solving for p, Initial residual = 0.00853759, Final residual = 0.000632699, No Iterations 2
time step continuity errors : sum local = 0.00263191, global = 1.96394e-05, cumulative = 0.039979
smoothSolver:  Solving for omega, Initial residual = 0.000398167, Final residual = 3.93738e-05, No Iterations 2
smoothSolver:  Solving for k, Initial residual = 0.00472013, Final residual = 0.00029193, No Iterations 3
ExecutionTime = 1.1 s  ClockTime = 1 s

scalarTransport execute: age
smoothSolver:  Solving for age, Initial residual = 0.00848745, Final residual = 0.000819171, No Iterations 11

Time = 96

smoothSolver:  Solving for Ux, Initial residual = 0.00323844, Final residual = 0.000316978, No Iterations 3
smoothSolver:  Solving for Uy, Initial residual = 0.00320506, Final residual = 0.000196997, No Iterations 4
GAMG:  Solving for p, Initial residual = 0.00803459, Final residual = 0.000525295, No Iterations 2
[...]

smoothSolver:  Solving for Ux, Initial residual = 6.03863e-07, Final residual = 5.27149e-08, No Iterations 3
smoothSolver:  Solving for Uy, Initial residual = 6.13164e-07, Final residual = 4.04828e-08, No Iterations 4
GAMG:  Solving for p, Initial residual = 1.41109e-06, Final residual = 1.1699e-07, No Iterations 2
time step continuity errors : sum local = 4.80178e-07, global = -1.89845e-08, cumulative = 0.0364196
smoothSolver:  Solving for omega, Initial residual = 4.19915e-08, Final residual = 5.33842e-09, No Iterations 2
smoothSolver:  Solving for k, Initial residual = 4.31507e-07, Final residual = 2.70191e-08, No Iterations 3
ExecutionTime = 5.9 s  ClockTime = 5 s

scalarTransport execute: age
smoothSolver:  Solving for age, Initial residual = 0.000482373, Final residual = 4.63646e-05, No Iterations 14

Time = 523

smoothSolver:  Solving for Ux, Initial residual = 5.93306e-07, Final residual = 5.1224e-08, No Iterations 3
smoothSolver:  Solving for Uy, Initial residual = 6.0114e-07, Final residual = 3.96441e-08, No Iterations 4
GAMG:  Solving for p, Initial residual = 1.38428e-06, Final residual = 1.14566e-07, No Iterations 2
time step continuity errors : sum local = 4.70231e-07, global = -1.85683e-08, cumulative = 0.0364195
smoothSolver:  Solving for omega, Initial residual = 4.12303e-08, Final residual = 5.25547e-09, No Iterations 2
smoothSolver:  Solving for k, Initial residual = 4.23482e-07, Final residual = 2.69669e-08, No Iterations 3
ExecutionTime = 5.91 s  ClockTime = 5 s

scalarTransport execute: age
smoothSolver:  Solving for age, Initial residual = 0.000481273, Final residual = 4.62599e-05, No Iterations 14

Time = 524

smoothSolver:  Solving for Ux, Initial residual = 5.82131e-07, Final residual = 4.98219e-08, No Iterations 3
smoothSolver:  Solving for Uy, Initial residual = 5.88776e-07, Final residual = 3.86328e-08, No Iterations 4
GAMG:  Solving for p, Initial residual = 1.35726e-06, Final residual = 1.11788e-07, No Iterations 2
time step continuity errors : sum local = 4.58826e-07, global = -1.82138e-08, cumulative = 0.0364195
smoothSolver:  Solving for omega, Initial residual = 4.0389e-08, Final residual = 5.13656e-09, No Iterations 2
smoothSolver:  Solving for k, Initial residual = 4.15234e-07, Final residual = 2.72846e-08, No Iterations 3
ExecutionTime = 5.92 s  ClockTime = 5 s

scalarTransport execute: age
smoothSolver:  Solving for age, Initial residual = 0.000480175, Final residual = 4.61556e-05, No Iterations 14

Time = 525

smoothSolver:  Solving for Ux, Initial residual = 5.72548e-07, Final residual = 4.88627e-08, No Iterations 3
smoothSolver:  Solving for Uy, Initial residual = 5.7761e-07, Final residual = 3.78131e-08, No Iterations 4
GAMG:  Solving for p, Initial residual = 1.33703e-06, Final residual = 1.09075e-07, No Iterations 2
time step continuity errors : sum local = 4.47689e-07, global = -1.79331e-08, cumulative = 0.0364195
smoothSolver:  Solving for omega, Initial residual = 3.96028e-08, Final residual = 5.00139e-09, No Iterations 2
smoothSolver:  Solving for k, Initial residual = 4.07526e-07, Final residual = 2.72981e-08, No Iterations 3
ExecutionTime = 5.93 s  ClockTime = 5 s

scalarTransport execute: age
smoothSolver:  Solving for age, Initial residual = 0.000479083, Final residual = 4.60516e-05, No Iterations 14

Time = 526

smoothSolver:  Solving for Ux, Initial residual = 5.64676e-07, Final residual = 4.82163e-08, No Iterations 3
smoothSolver:  Solving for Uy, Initial residual = 5.68735e-07, Final residual = 3.72739e-08, No Iterations 4
GAMG:  Solving for p, Initial residual = 1.31988e-06, Final residual = 1.06799e-07, No Iterations 2
time step continuity errors : sum local = 4.3835e-07, global = -1.77207e-08, cumulative = 0.0364195
smoothSolver:  Solving for omega, Initial residual = 3.90668e-08, Final residual = 4.93218e-09, No Iterations 2
smoothSolver:  Solving for k, Initial residual = 4.02412e-07, Final residual = 2.70192e-08, No Iterations 3
ExecutionTime = 5.94 s  ClockTime = 5 s

scalarTransport execute: age
smoothSolver:  Solving for age, Initial residual = 0.000477993, Final residual = 4.59478e-05, No Iterations 14

Time = 527

smoothSolver:  Solving for Ux, Initial residual = 5.58059e-07, Final residual = 4.78813e-08, No Iterations 3
smoothSolver:  Solving for Uy, Initial residual = 5.62766e-07, Final residual = 3.69678e-08, No Iterations 4
GAMG:  Solving for p, Initial residual = 1.30416e-06, Final residual = 1.05577e-07, No Iterations 2
time step continuity errors : sum local = 4.33333e-07, global = -1.75545e-08, cumulative = 0.0364195
smoothSolver:  Solving for omega, Initial residual = 3.88335e-08, Final residual = 4.90493e-09, No Iterations 2
smoothSolver:  Solving for k, Initial residual = 3.9871e-07, Final residual = 2.66778e-08, No Iterations 3
ExecutionTime = 5.95 s  ClockTime = 5 s

scalarTransport execute: age
smoothSolver:  Solving for age, Initial residual = 0.000476907, Final residual = 4.58441e-05, No Iterations 14

Time = 528

smoothSolver:  Solving for Ux, Initial residual = 5.51905e-07, Final residual = 4.77969e-08, No Iterations 3
smoothSolver:  Solving for Uy, Initial residual = 5.57718e-07, Final residual = 3.67975e-08, No Iterations 4
GAMG:  Solving for p, Initial residual = 1.29191e-06, Final residual = 1.05423e-07, No Iterations 2
time step continuity errors : sum local = 4.32703e-07, global = -1.74036e-08, cumulative = 0.0364194
smoothSolver:  Solving for omega, Initial residual = 3.84573e-08, Final residual = 4.85796e-09, No Iterations 2
smoothSolver:  Solving for k, Initial residual = 3.94912e-07, Final residual = 2.63735e-08, No Iterations 3
ExecutionTime = 5.96 s  ClockTime = 6 s

scalarTransport execute: age
smoothSolver:  Solving for age, Initial residual = 0.000475825, Final residual = 4.57408e-05, No Iterations 14

Time = 529

smoothSolver:  Solving for Ux, Initial residual = 5.4553e-07, Final residual = 4.75332e-08, No Iterations 3
smoothSolver:  Solving for Uy, Initial residual = 5.51815e-07, Final residual = 3.65021e-08, No Iterations 4
GAMG:  Solving for p, Initial residual = 1.27829e-06, Final residual = 1.05054e-07, No Iterations 2
time step continuity errors : sum local = 4.31186e-07, global = -1.72371e-08, cumulative = 0.0364194
smoothSolver:  Solving for omega, Initial residual = 3.78158e-08, Final residual = 4.77111e-09, No Iterations 2
smoothSolver:  Solving for k, Initial residual = 3.90866e-07, Final residual = 2.60443e-08, No Iterations 3
ExecutionTime = 5.98 s  ClockTime = 6 s

scalarTransport execute: age
smoothSolver:  Solving for age, Initial residual = 0.000474749, Final residual = 4.56378e-05, No Iterations 14

Time = 530

smoothSolver:  Solving for Ux, Initial residual = 5.38321e-07, Final residual = 4.69452e-08, No Iterations 3
smoothSolver:  Solving for Uy, Initial residual = 5.44649e-07, Final residual = 3.5984e-08, No Iterations 4
GAMG:  Solving for p, Initial residual = 1.26143e-06, Final residual = 1.03746e-07, No Iterations 2
time step continuity errors : sum local = 4.2582e-07, global = -1.70323e-08, cumulative = 0.0364194
smoothSolver:  Solving for omega, Initial residual = 3.69112e-08, Final residual = 4.63956e-09, No Iterations 2
smoothSolver:  Solving for k, Initial residual = 3.86173e-07, Final residual = 2.56205e-08, No Iterations 3
ExecutionTime = 5.99 s  ClockTime = 6 s

scalarTransport execute: age
smoothSolver:  Solving for age, Initial residual = 0.00047368, Final residual = 4.55352e-05, No Iterations 14

Time = 531

smoothSolver:  Solving for Ux, Initial residual = 5.29581e-07, Final residual = 4.62881e-08, No Iterations 3
smoothSolver:  Solving for Uy, Initial residual = 5.36319e-07, Final residual = 3.52559e-08, No Iterations 4
GAMG:  Solving for p, Initial residual = 1.24126e-06, Final residual = 1.01471e-07, No Iterations 2
time step continuity errors : sum local = 4.16482e-07, global = -1.67781e-08, cumulative = 0.0364194
smoothSolver:  Solving for omega, Initial residual = 3.59834e-08, Final residual = 4.49898e-09, No Iterations 2
smoothSolver:  Solving for k, Initial residual = 3.80172e-07, Final residual = 2.50015e-08, No Iterations 3
ExecutionTime = 6 s  ClockTime = 6 s

scalarTransport execute: age
smoothSolver:  Solving for age, Initial residual = 0.000472618, Final residual = 4.54331e-05, No Iterations 14

Time = 532

smoothSolver:  Solving for Ux, Initial residual = 5.20575e-07, Final residual = 4.55933e-08, No Iterations 3
smoothSolver:  Solving for Uy, Initial residual = 5.27281e-07, Final residual = 3.45264e-08, No Iterations 4
GAMG:  Solving for p, Initial residual = 1.22013e-06, Final residual = 9.91783e-08, No Iterations 2
time step continuity errors : sum local = 4.07071e-07, global = -1.64754e-08, cumulative = 0.0364194
smoothSolver:  Solving for omega, Initial residual = 3.53244e-08, Final residual = 4.40994e-09, No Iterations 2
smoothSolver:  Solving for k, Initial residual = 3.72957e-07, Final residual = 2.41327e-08, No Iterations 3
ExecutionTime = 6.01 s  ClockTime = 6 s

scalarTransport execute: age
smoothSolver:  Solving for age, Initial residual = 0.000471562, Final residual = 4.53316e-05, No Iterations 14

Time = 533

smoothSolver:  Solving for Ux, Initial residual = 5.11614e-07, Final residual = 4.48697e-08, No Iterations 3
smoothSolver:  Solving for Uy, Initial residual = 5.17734e-07, Final residual = 3.39457e-08, No Iterations 4
GAMG:  Solving for p, Initial residual = 1.19761e-06, Final residual = 9.80396e-08, No Iterations 2
time step continuity errors : sum local = 4.02397e-07, global = -1.61348e-08, cumulative = 0.0364194
smoothSolver:  Solving for omega, Initial residual = 3.49223e-08, Final residual = 4.378e-09, No Iterations 2
smoothSolver:  Solving for k, Initial residual = 3.65398e-07, Final residual = 2.32148e-08, No Iterations 3
ExecutionTime = 6.02 s  ClockTime = 6 s

scalarTransport execute: age
smoothSolver:  Solving for age, Initial residual = 0.00047051, Final residual = 4.52308e-05, No Iterations 14

Time = 534

smoothSolver:  Solving for Ux, Initial residual = 5.0202e-07, Final residual = 4.40008e-08, No Iterations 3
smoothSolver:  Solving for Uy, Initial residual = 5.08816e-07, Final residual = 3.34708e-08, No Iterations 4
GAMG:  Solving for p, Initial residual = 1.17491e-06, Final residual = 9.70739e-08, No Iterations 2
time step continuity errors : sum local = 3.98434e-07, global = -1.5774e-08, cumulative = 0.0364193
smoothSolver:  Solving for omega, Initial residual = 3.46e-08, Final residual = 4.36414e-09, No Iterations 2
smoothSolver:  Solving for k, Initial residual = 3.58172e-07, Final residual = 2.24238e-08, No Iterations 3
ExecutionTime = 6.03 s  ClockTime = 6 s

scalarTransport execute: age
smoothSolver:  Solving for age, Initial residual = 0.000469466, Final residual = 4.51305e-05, No Iterations 14

Time = 535

smoothSolver:  Solving for Ux, Initial residual = 4.93055e-07, Final residual = 4.29281e-08, No Iterations 3
smoothSolver:  Solving for Uy, Initial residual = 5.00022e-07, Final residual = 3.2973e-08, No Iterations 4
GAMG:  Solving for p, Initial residual = 1.15165e-06, Final residual = 9.56433e-08, No Iterations 2
time step continuity errors : sum local = 3.92562e-07, global = -1.54157e-08, cumulative = 0.0364193
smoothSolver:  Solving for omega, Initial residual = 3.41644e-08, Final residual = 4.33358e-09, No Iterations 2
smoothSolver:  Solving for k, Initial residual = 3.51102e-07, Final residual = 2.19894e-08, No Iterations 3
ExecutionTime = 6.04 s  ClockTime = 6 s

scalarTransport execute: age
smoothSolver:  Solving for age, Initial residual = 0.000468422, Final residual = 4.50307e-05, No Iterations 14

Time = 536

smoothSolver:  Solving for Ux, Initial residual = 4.84581e-07, Final residual = 4.17259e-08, No Iterations 3
smoothSolver:  Solving for Uy, Initial residual = 4.90483e-07, Final residual = 3.23061e-08, No Iterations 4
GAMG:  Solving for p, Initial residual = 1.13016e-06, Final residual = 9.3744e-08, No Iterations 2
time step continuity errors : sum local = 3.84766e-07, global = -1.50841e-08, cumulative = 0.0364193
smoothSolver:  Solving for omega, Initial residual = 3.35704e-08, Final residual = 4.27037e-09, No Iterations 2
smoothSolver:  Solving for k, Initial residual = 3.44452e-07, Final residual = 2.19192e-08, No Iterations 3
ExecutionTime = 6.06 s  ClockTime = 6 s

scalarTransport execute: age
smoothSolver:  Solving for age, Initial residual = 0.000467379, Final residual = 4.49314e-05, No Iterations 14

Time = 537

smoothSolver:  Solving for Ux, Initial residual = 4.75531e-07, Final residual = 4.05798e-08, No Iterations 3
smoothSolver:  Solving for Uy, Initial residual = 4.80604e-07, Final residual = 3.1494e-08, No Iterations 4
GAMG:  Solving for p, Initial residual = 1.10866e-06, Final residual = 9.15362e-08, No Iterations 2
time step continuity errors : sum local = 3.75704e-07, global = -1.47991e-08, cumulative = 0.0364193
smoothSolver:  Solving for omega, Initial residual = 3.29051e-08, Final residual = 4.17785e-09, No Iterations 2
smoothSolver:  Solving for k, Initial residual = 3.37763e-07, Final residual = 2.21523e-08, No Iterations 3
ExecutionTime = 6.07 s  ClockTime = 6 s

scalarTransport execute: age
smoothSolver:  Solving for age, Initial residual = 0.00046634, Final residual = 4.48323e-05, No Iterations 14

Time = 538

smoothSolver:  Solving for Ux, Initial residual = 4.6753e-07, Final residual = 3.97472e-08, No Iterations 3
smoothSolver:  Solving for Uy, Initial residual = 4.71559e-07, Final residual = 3.08048e-08, No Iterations 4
GAMG:  Solving for p, Initial residual = 1.09157e-06, Final residual = 8.93587e-08, No Iterations 2
time step continuity errors : sum local = 3.66767e-07, global = -1.45706e-08, cumulative = 0.0364193
smoothSolver:  Solving for omega, Initial residual = 3.22716e-08, Final residual = 9.90472e-09, No Iterations 1
smoothSolver:  Solving for k, Initial residual = 3.35667e-07, Final residual = 2.2543e-08, No Iterations 3
ExecutionTime = 6.08 s  ClockTime = 6 s

scalarTransport execute: age
smoothSolver:  Solving for age, Initial residual = 0.000465303, Final residual = 4.47335e-05, No Iterations 14

Time = 539

smoothSolver:  Solving for Ux, Initial residual = 4.60569e-07, Final residual = 3.916e-08, No Iterations 3
smoothSolver:  Solving for Uy, Initial residual = 4.63877e-07, Final residual = 3.03286e-08, No Iterations 4
GAMG:  Solving for p, Initial residual = 1.07782e-06, Final residual = 8.74414e-08, No Iterations 2
time step continuity errors : sum local = 3.58898e-07, global = -1.43973e-08, cumulative = 0.0364193
smoothSolver:  Solving for omega, Initial residual = 3.53885e-08, Final residual = 4.54392e-09, No Iterations 2
smoothSolver:  Solving for k, Initial residual = 3.30349e-07, Final residual = 2.23708e-08, No Iterations 3
ExecutionTime = 6.09 s  ClockTime = 6 s

scalarTransport execute: age
smoothSolver:  Solving for age, Initial residual = 0.00046427, Final residual = 4.46349e-05, No Iterations 14

Time = 540

smoothSolver:  Solving for Ux, Initial residual = 4.55083e-07, Final residual = 3.88466e-08, No Iterations 3
smoothSolver:  Solving for Uy, Initial residual = 4.58707e-07, Final residual = 3.00551e-08, No Iterations 4
GAMG:  Solving for p, Initial residual = 1.06398e-06, Final residual = 8.62151e-08, No Iterations 2
time step continuity errors : sum local = 3.53865e-07, global = -1.42591e-08, cumulative = 0.0364193
smoothSolver:  Solving for omega, Initial residual = 3.30466e-08, Final residual = 4.27372e-09, No Iterations 2
smoothSolver:  Solving for k, Initial residual = 3.24276e-07, Final residual = 2.17152e-08, No Iterations 3
ExecutionTime = 6.1 s  ClockTime = 6 s

scalarTransport execute: age
smoothSolver:  Solving for age, Initial residual = 0.000463241, Final residual = 4.45367e-05, No Iterations 14

Time = 541

smoothSolver:  Solving for Ux, Initial residual = 4.50173e-07, Final residual = 3.87915e-08, No Iterations 3
smoothSolver:  Solving for Uy, Initial residual = 4.54469e-07, Final residual = 2.99051e-08, No Iterations 4
GAMG:  Solving for p, Initial residual = 1.05388e-06, Final residual = 8.59291e-08, No Iterations 2
time step continuity errors : sum local = 3.5269e-07, global = -1.41398e-08, cumulative = 0.0364192
smoothSolver:  Solving for omega, Initial residual = 3.20958e-08, Final residual = 4.12815e-09, No Iterations 2
smoothSolver:  Solving for k, Initial residual = 3.19698e-07, Final residual = 2.12739e-08, No Iterations 3
ExecutionTime = 6.11 s  ClockTime = 6 s

scalarTransport execute: age
smoothSolver:  Solving for age, Initial residual = 0.000462214, Final residual = 4.44389e-05, No Iterations 14

Time = 542

smoothSolver:  Solving for Ux, Initial residual = 4.45012e-07, Final residual = 3.86218e-08, No Iterations 3
smoothSolver:  Solving for Uy, Initial residual = 4.49593e-07, Final residual = 2.96657e-08, No Iterations 4
GAMG:  Solving for p, Initial residual = 1.04285e-06, Final residual = 8.56223e-08, No Iterations 2
time step continuity errors : sum local = 3.51431e-07, global = -1.40115e-08, cumulative = 0.0364192
smoothSolver:  Solving for omega, Initial residual = 3.12617e-08, Final residual = 9.70773e-09, No Iterations 1
smoothSolver:  Solving for k, Initial residual = 3.19987e-07, Final residual = 2.12793e-08, No Iterations 3
ExecutionTime = 6.12 s  ClockTime = 6 s

scalarTransport execute: age
smoothSolver:  Solving for age, Initial residual = 0.000461193, Final residual = 4.43414e-05, No Iterations 14

Time = 543

smoothSolver:  Solving for Ux, Initial residual = 4.38982e-07, Final residual = 3.81755e-08, No Iterations 3
smoothSolver:  Solving for Uy, Initial residual = 4.43737e-07, Final residual = 2.92462e-08, No Iterations 4
GAMG:  Solving for p, Initial residual = 1.02953e-06, Final residual = 8.46272e-08, No Iterations 2
time step continuity errors : sum local = 3.47347e-07, global = -1.38536e-08, cumulative = 0.0364192
smoothSolver:  Solving for omega, Initial residual = 3.39136e-08, Final residual = 4.3881e-09, No Iterations 2
smoothSolver:  Solving for k, Initial residual = 3.14951e-07, Final residual = 2.09457e-08, No Iterations 3
ExecutionTime = 6.13 s  ClockTime = 6 s

scalarTransport execute: age
smoothSolver:  Solving for age, Initial residual = 0.000460178, Final residual = 4.42442e-05, No Iterations 14

Time = 544

smoothSolver:  Solving for Ux, Initial residual = 4.32092e-07, Final residual = 3.76598e-08, No Iterations 3
smoothSolver:  Solving for Uy, Initial residual = 4.37061e-07, Final residual = 2.86765e-08, No Iterations 4
GAMG:  Solving for p, Initial residual = 1.01266e-06, Final residual = 8.28106e-08, No Iterations 2
time step continuity errors : sum local = 3.39891e-07, global = -1.36507e-08, cumulative = 0.0364192
smoothSolver:  Solving for omega, Initial residual = 3.0882e-08, Final residual = 9.65291e-09, No Iterations 1
smoothSolver:  Solving for k, Initial residual = 3.11613e-07, Final residual = 2.04796e-08, No Iterations 3
ExecutionTime = 6.14 s  ClockTime = 6 s

scalarTransport execute: age
smoothSolver:  Solving for age, Initial residual = 0.000459169, Final residual = 4.41475e-05, No Iterations 14

Time = 545

smoothSolver:  Solving for Ux, Initial residual = 4.24677e-07, Final residual = 3.71023e-08, No Iterations 3
smoothSolver:  Solving for Uy, Initial residual = 4.29695e-07, Final residual = 2.8085e-08, No Iterations 4
GAMG:  Solving for p, Initial residual = 9.961e-07, Final residual = 8.10138e-08, No Iterations 2
time step continuity errors : sum local = 3.32516e-07, global = -1.34104e-08, cumulative = 0.0364192
smoothSolver:  Solving for omega, Initial residual = 3.31046e-08, Final residual = 4.31052e-09, No Iterations 2
smoothSolver:  Solving for k, Initial residual = 3.03781e-07, Final residual = 1.97011e-08, No Iterations 3
ExecutionTime = 6.15 s  ClockTime = 6 s


SIMPLE solution converged in 545 iterations

scalarTransport execute: age
smoothSolver:  Solving for age, Initial residual = 0.000458165, Final residual = 4.40512e-05, No Iterations 14

End

