/*---------------------------------------------------------------------------*\
| =========                 |                                                 |
| \\      /  F ield         | OpenFOAM: The Open Source CFD Toolbox           |
|  \\    /   O peration     | Version:  v2012                                 |
|   \\  /    A nd           | Website:  www.openfoam.com                      |
|    \\/     M anipulation  |                                                 |
\*---------------------------------------------------------------------------*/
Build  : _7bdb509494-20201222 OPENFOAM=2012
Arch   : "LSB;label=32;scalar=64"
Exec   : simpleFoam
Date   : Feb 22 2023
Time   : 17:12:25
Host   : johnsDesktop
PID    : 5254
I/O    : uncollated
Case   : /home/john/of_runs/cases/0_1_3-00700_9
nProcs : 1
trapFpe: Floating point exception trapping enabled (FOAM_SIGFPE).
fileModificationChecking : Monitoring run-time modified files using timeStampMaster (fileModificationSkew 5, maxFileModificationPolls 20)
allowSystemOperations : Allowing user-supplied system call operations

// * * * * * * * * * * * * * * * * * * * * * * * * * * * * * * * * * * * * * //
Create time

Create mesh for time = 0


SIMPLE: convergence criteria
    field p	 tolerance 1e-06
    field U	 tolerance 1e-06
    field "(k|epsilon|omega|f|v2|age)"	 tolerance 1e-05

Reading field p

Reading field U

Reading/calculating face flux field phi

Selecting incompressible transport model Newtonian
Selecting turbulence model type RAS
Selecting RAS turbulence model kOmegaSST
Selecting patchDistMethod meshWave
RAS
{
    RASModel        kOmegaSST;
    turbulence      on;
    printCoeffs     on;
    alphaK1         0.85;
    alphaK2         1;
    alphaOmega1     0.5;
    alphaOmega2     0.856;
    gamma1          0.555556;
    gamma2          0.44;
    beta1           0.075;
    beta2           0.0828;
    betaStar        0.09;
    a1              0.31;
    b1              1;
    c1              10;
    F3              false;
    decayControl    false;
    kInf            0;
    omegaInf        0;
}

No MRF models present

No finite volume options present

Starting time loop

Selecting finite volume options type scalarSemiImplicitSource
    Source: unitySource
    - selecting all cells
    - selected 6108 cell(s) with volume 0.03195
Time = 1

smoothSolver:  Solving for Ux, Initial residual = 0, Final residual = 0, No Iterations 0
smoothSolver:  Solving for Uy, Initial residual = 1, Final residual = 0.0858531, No Iterations 2
GAMG:  Solving for p, Initial residual = 1, Final residual = 0.0639397, No Iterations 11
time step continuity errors : sum local = 0.00400248, global = -0.000468026, cumulative = -0.000468026
smoothSolver:  Solving for omega, Initial residual = 0.293581, Final residual = 0.0125745, No Iterations 3
smoothSolver:  Solving for k, Initial residual = 1, Final residual = 0.0818064, No Iterations 3
ExecutionTime = 0.05 s  ClockTime = 0 s

scalarTransport execute: age
smoothSolver:  Solving for age, Initial residual = 1, Final residual = 0.09984, No Iterations 3

Time = 2

smoothSolver:  Solving for Ux, Initial residual = 0.575068, Final residual = 0.0495824, No Iterations 6
smoothSolver:  Solving for Uy, Initial residual = 0.276875, Final residual = 0.0198799, No Iterations 6
GAMG:  Solving for p, Initial residual = 0.0453713, Final residual = 0.00398633, No Iterations 4
time step continuity errors : sum local = 0.0428787, global = 0.00547776, cumulative = 0.00500973
smoothSolver:  Solving for omega, Initial residual = 0.261018, Final residual = 0.0137261, No Iterations 4
smoothSolver:  Solving for k, Initial residual = 0.612954, Final residual = 0.0589708, No Iterations 4
ExecutionTime = 0.06 s  ClockTime = 0 s

scalarTransport execute: age
smoothSolver:  Solving for age, Initial residual = 0.579192, Final residual = 0.0544788, No Iterations 17

Time = 3

smoothSolver:  Solving for Ux, Initial residual = 0.242456, Final residual = 0.0184124, No Iterations 6
smoothSolver:  Solving for Uy, Initial residual = 0.0978126, Final residual = 0.00904922, No Iterations 5
GAMG:  Solving for p, Initial residual = 0.0551826, Final residual = 0.00343614, No Iterations 5
time step continuity errors : sum local = 0.0165848, global = 0.00203448, cumulative = 0.00704422
smoothSolver:  Solving for omega, Initial residual = 0.237051, Final residual = 0.0136733, No Iterations 5
smoothSolver:  Solving for k, Initial residual = 0.51615, Final residual = 0.0403284, No Iterations 5
ExecutionTime = 0.07 s  ClockTime = 0 s

scalarTransport execute: age
smoothSolver:  Solving for age, Initial residual = 0.197658, Final residual = 0.018129, No Iterations 14

Time = 4

smoothSolver:  Solving for Ux, Initial residual = 0.117948, Final residual = 0.010581, No Iterations 3
smoothSolver:  Solving for Uy, Initial residual = 0.0510952, Final residual = 0.00369109, No Iterations 5
GAMG:  Solving for p, Initial residual = 0.086475, Final residual = 0.00643702, No Iterations 3
time step continuity errors : sum local = 0.015317, global = 0.00102742, cumulative = 0.00807163
smoothSolver:  Solving for omega, Initial residual = 0.134478, Final residual = 0.00966691, No Iterations 5
smoothSolver:  Solving for k, Initial residual = 0.446584, Final residual = 0.0390065, No Iterations 5
ExecutionTime = 0.09 s  ClockTime = 0 s

scalarTransport execute: age
smoothSolver:  Solving for age, Initial residual = 0.182078, Final residual = 0.0174158, No Iterations 5

Time = 5

smoothSolver:  Solving for Ux, Initial residual = 0.0948218, Final residual = 0.0088204, No Iterations 5
smoothSolver:  Solving for Uy, Initial residual = 0.0338132, Final residual = 0.00263294, No Iterations 5
GAMG:  Solving for p, Initial residual = 0.0822715, Final residual = 0.00340827, No Iterations 2
time step continuity errors : sum local = 0.00693152, global = 0.000915542, cumulative = 0.00898718
smoothSolver:  Solving for omega, Initial residual = 0.0937765, Final residual = 0.00738342, No Iterations 5
smoothSolver:  Solving for k, Initial residual = 0.359566, Final residual = 0.0336215, No Iterations 5
ExecutionTime = 0.1 s  ClockTime = 0 s

scalarTransport execute: age
smoothSolver:  Solving for age, Initial residual = 0.188351, Final residual = 0.0166503, No Iterations 4

Time = 6

smoothSolver:  Solving for Ux, Initial residual = 0.0780029, Final residual = 0.00607194, No Iterations 6
smoothSolver:  Solving for Uy, Initial residual = 0.0273538, Final residual = 0.00226519, No Iterations 5
GAMG:  Solving for p, Initial residual = 0.0646754, Final residual = 0.00423616, No Iterations 2
time step continuity errors : sum local = 0.00878477, global = 0.000270177, cumulative = 0.00925735
smoothSolver:  Solving for omega, Initial residual = 0.0759785, Final residual = 0.00631453, No Iterations 5
smoothSolver:  Solving for k, Initial residual = 0.28724, Final residual = 0.0284186, No Iterations 5
ExecutionTime = 0.11 s  ClockTime = 0 s

scalarTransport execute: age
smoothSolver:  Solving for age, Initial residual = 0.165798, Final residual = 0.0135343, No Iterations 4

Time = 7

smoothSolver:  Solving for Ux, Initial residual = 0.0687063, Final residual = 0.00543686, No Iterations 6
smoothSolver:  Solving for Uy, Initial residual = 0.0231745, Final residual = 0.00206045, No Iterations 5
GAMG:  Solving for p, Initial residual = 0.0523724, Final residual = 0.00411213, No Iterations 3
time step continuity errors : sum local = 0.00869181, global = -0.00063088, cumulative = 0.00862647
smoothSolver:  Solving for omega, Initial residual = 0.0579047, Final residual = 0.0051491, No Iterations 5
smoothSolver:  Solving for k, Initial residual = 0.237884, Final residual = 0.015544, No Iterations 6
ExecutionTime = 0.12 s  ClockTime = 0 s

scalarTransport execute: age
smoothSolver:  Solving for age, Initial residual = 0.147968, Final residual = 0.0128759, No Iterations 3

Time = 8

smoothSolver:  Solving for Ux, Initial residual = 0.0448191, Final residual = 0.00406939, No Iterations 5
smoothSolver:  Solving for Uy, Initial residual = 0.0213396, Final residual = 0.00198783, No Iterations 5
GAMG:  Solving for p, Initial residual = 0.0419001, Final residual = 0.00417319, No Iterations 2
time step continuity errors : sum local = 0.00987509, global = -0.000200633, cumulative = 0.00842584
smoothSolver:  Solving for omega, Initial residual = 0.0472939, Final residual = 0.00433486, No Iterations 5
smoothSolver:  Solving for k, Initial residual = 0.202541, Final residual = 0.0136879, No Iterations 6
ExecutionTime = 0.13 s  ClockTime = 0 s

scalarTransport execute: age
smoothSolver:  Solving for age, Initial residual = 0.126095, Final residual = 0.0102383, No Iterations 3

Time = 9

smoothSolver:  Solving for Ux, Initial residual = 0.0356477, Final residual = 0.00341873, No Iterations 5
smoothSolver:  Solving for Uy, Initial residual = 0.0203, Final residual = 0.00186395, No Iterations 5
GAMG:  Solving for p, Initial residual = 0.0352403, Final residual = 0.00276952, No Iterations 2
time step continuity errors : sum local = 0.0070112, global = -0.000830684, cumulative = 0.00759516
smoothSolver:  Solving for omega, Initial residual = 0.0391358, Final residual = 0.00369421, No Iterations 5
smoothSolver:  Solving for k, Initial residual = 0.175777, Final residual = 0.0122006, No Iterations 6
ExecutionTime = 0.14 s  ClockTime = 0 s

scalarTransport execute: age
smoothSolver:  Solving for age, Initial residual = 0.109919, Final residual = 0.00627231, No Iterations 3

Time = 10

smoothSolver:  Solving for Ux, Initial residual = 0.033422, Final residual = 0.00222364, No Iterations 6
smoothSolver:  Solving for Uy, Initial residual = 0.0189658, Final residual = 0.0017458, No Iterations 5
GAMG:  Solving for p, Initial residual = 0.0296728, Final residual = 0.00186638, No Iterations 2
time step continuity errors : sum local = 0.0049111, global = -0.000498428, cumulative = 0.00709673
smoothSolver:  Solving for omega, Initial residual = 0.0331036, Final residual = 0.00318914, No Iterations 5
smoothSolver:  Solving for k, Initial residual = 0.154614, Final residual = 0.0109847, No Iterations 6
ExecutionTime = 0.16 s  ClockTime = 0 s

scalarTransport execute: age
smoothSolver:  Solving for age, Initial residual = 0.0928236, Final residual = 0.00920301, No Iterations 2

Time = 11

smoothSolver:  Solving for Ux, Initial residual = 0.0326411, Final residual = 0.00224567, No Iterations 6
smoothSolver:  Solving for Uy, Initial residual = 0.0181682, Final residual = 0.00171943, No Iterations 5
GAMG:  Solving for p, Initial residual = 0.0255503, Final residual = 0.000978997, No Iterations 2
time step continuity errors : sum local = 0.00264315, global = -0.000399243, cumulative = 0.00669749
smoothSolver:  Solving for omega, Initial residual = 0.0278154, Final residual = 0.00274913, No Iterations 5
smoothSolver:  Solving for k, Initial residual = 0.1379, Final residual = 0.00997657, No Iterations 6
ExecutionTime = 0.17 s  ClockTime = 0 s

scalarTransport execute: age
smoothSolver:  Solving for age, Initial residual = 0.0838425, Final residual = 0.00472932, No Iterations 3

Time = 12

smoothSolver:  Solving for Ux, Initial residual = 0.0311299, Final residual = 0.00216637, No Iterations 6
smoothSolver:  Solving for Uy, Initial residual = 0.0168679, Final residual = 0.0016497, No Iterations 5
GAMG:  Solving for p, Initial residual = 0.0222371, Final residual = 0.00088837, No Iterations 2
time step continuity errors : sum local = 0.00241651, global = -0.000292546, cumulative = 0.00640494
smoothSolver:  Solving for omega, Initial residual = 0.0239437, Final residual = 0.0015285, No Iterations 6
smoothSolver:  Solving for k, Initial residual = 0.123859, Final residual = 0.00910392, No Iterations 6
ExecutionTime = 0.18 s  ClockTime = 0 s

scalarTransport execute: age
smoothSolver:  Solving for age, Initial residual = 0.0745907, Final residual = 0.00472066, No Iterations 3

Time = 13

smoothSolver:  Solving for Ux, Initial residual = 0.0299332, Final residual = 0.00211457, No Iterations 6
smoothSolver:  Solving for Uy, Initial residual = 0.0163751, Final residual = 0.00108508, No Iterations 6
GAMG:  Solving for p, Initial residual = 0.0203877, Final residual = 0.000952581, No Iterations 2
time step continuity errors : sum local = 0.00260725, global = -0.000193053, cumulative = 0.00621189
smoothSolver:  Solving for omega, Initial residual = 0.0205478, Final residual = 0.00133409, No Iterations 6
smoothSolver:  Solving for k, Initial residual = 0.112013, Final residual = 0.00835014, No Iterations 6
ExecutionTime = 0.19 s  ClockTime = 0 s

scalarTransport execute: age
smoothSolver:  Solving for age, Initial residual = 0.066388, Final residual = 0.00461434, No Iterations 3

Time = 14

smoothSolver:  Solving for Ux, Initial residual = 0.0290595, Final residual = 0.0020676, No Iterations 6
smoothSolver:  Solving for Uy, Initial residual = 0.0161182, Final residual = 0.00109024, No Iterations 6
GAMG:  Solving for p, Initial residual = 0.0191583, Final residual = 0.000968257, No Iterations 2
time step continuity errors : sum local = 0.00265889, global = -7.33737e-05, cumulative = 0.00613851
smoothSolver:  Solving for omega, Initial residual = 0.0177994, Final residual = 0.00117247, No Iterations 6
smoothSolver:  Solving for k, Initial residual = 0.102115, Final residual = 0.00770199, No Iterations 6
ExecutionTime = 0.2 s  ClockTime = 0 s

scalarTransport execute: age
smoothSolver:  Solving for age, Initial residual = 0.0582642, Final residual = 0.00419547, No Iterations 3

Time = 15

smoothSolver:  Solving for Ux, Initial residual = 0.0282365, Final residual = 0.0020185, No Iterations 6
smoothSolver:  Solving for Uy, Initial residual = 0.0158822, Final residual = 0.00108851, No Iterations 6
GAMG:  Solving for p, Initial residual = 0.01828, Final residual = 0.000924885, No Iterations 2
time step continuity errors : sum local = 0.00254369, global = 4.27819e-05, cumulative = 0.00618129
smoothSolver:  Solving for omega, Initial residual = 0.0155749, Final residual = 0.00103782, No Iterations 6
smoothSolver:  Solving for k, Initial residual = 0.0936952, Final residual = 0.00713718, No Iterations 6
ExecutionTime = 0.21 s  ClockTime = 0 s

scalarTransport execute: age
smoothSolver:  Solving for age, Initial residual = 0.0510524, Final residual = 0.00389636, No Iterations 3

Time = 16

smoothSolver:  Solving for Ux, Initial residual = 0.0273867, Final residual = 0.00196319, No Iterations 6
smoothSolver:  Solving for Uy, Initial residual = 0.0156618, Final residual = 0.00107918, No Iterations 6
GAMG:  Solving for p, Initial residual = 0.0174593, Final residual = 0.000886856, No Iterations 2
time step continuity errors : sum local = 0.00243861, global = 0.000134374, cumulative = 0.00631567
smoothSolver:  Solving for omega, Initial residual = 0.0137632, Final residual = 0.000924786, No Iterations 6
smoothSolver:  Solving for k, Initial residual = 0.0864543, Final residual = 0.00664134, No Iterations 6
ExecutionTime = 0.23 s  ClockTime = 0 s

scalarTransport execute: age
smoothSolver:  Solving for age, Initial residual = 0.0446685, Final residual = 0.0037631, No Iterations 3

Time = 17

smoothSolver:  Solving for Ux, Initial residual = 0.0264878, Final residual = 0.00190843, No Iterations 6
smoothSolver:  Solving for Uy, Initial residual = 0.0154059, Final residual = 0.00106387, No Iterations 6
GAMG:  Solving for p, Initial residual = 0.0167972, Final residual = 0.000848261, No Iterations 2
time step continuity errors : sum local = 0.00232452, global = 0.000203593, cumulative = 0.00651926
smoothSolver:  Solving for omega, Initial residual = 0.0122555, Final residual = 0.000829023, No Iterations 6
smoothSolver:  Solving for k, Initial residual = 0.0801638, Final residual = 0.00620265, No Iterations 6
ExecutionTime = 0.24 s  ClockTime = 0 s

scalarTransport execute: age
smoothSolver:  Solving for age, Initial residual = 0.0391695, Final residual = 0.00351979, No Iterations 3

Time = 18

smoothSolver:  Solving for Ux, Initial residual = 0.0256682, Final residual = 0.00185851, No Iterations 6
smoothSolver:  Solving for Uy, Initial residual = 0.0151679, Final residual = 0.00104731, No Iterations 6
GAMG:  Solving for p, Initial residual = 0.0161793, Final residual = 0.000822375, No Iterations 2
time step continuity errors : sum local = 0.00223791, global = 0.000247029, cumulative = 0.00676629
smoothSolver:  Solving for omega, Initial residual = 0.0109932, Final residual = 0.00074726, No Iterations 6
smoothSolver:  Solving for k, Initial residual = 0.0746637, Final residual = 0.00581303, No Iterations 6
ExecutionTime = 0.25 s  ClockTime = 0 s

scalarTransport execute: age
smoothSolver:  Solving for age, Initial residual = 0.0344887, Final residual = 0.00335377, No Iterations 3

Time = 19

smoothSolver:  Solving for Ux, Initial residual = 0.0249633, Final residual = 0.00181588, No Iterations 6
smoothSolver:  Solving for Uy, Initial residual = 0.0149268, Final residual = 0.00103316, No Iterations 6
GAMG:  Solving for p, Initial residual = 0.0156744, Final residual = 0.000804671, No Iterations 2
time step continuity errors : sum local = 0.00217139, global = 0.000268357, cumulative = 0.00703465
smoothSolver:  Solving for omega, Initial residual = 0.00992189, Final residual = 0.000676907, No Iterations 6
smoothSolver:  Solving for k, Initial residual = 0.0698156, Final residual = 0.00546473, No Iterations 6
ExecutionTime = 0.26 s  ClockTime = 0 s

scalarTransport execute: age
smoothSolver:  Solving for age, Initial residual = 0.0311416, Final residual = 0.00239717, No Iterations 4

Time = 20

smoothSolver:  Solving for Ux, Initial residual = 0.0243934, Final residual = 0.00178125, No Iterations 6
smoothSolver:  Solving for Uy, Initial residual = 0.0146904, Final residual = 0.00102123, No Iterations 6
GAMG:  Solving for p, Initial residual = 0.0152545, Final residual = 0.000794166, No Iterations 2
time step continuity errors : sum local = 0.00212548, global = 0.000272179, cumulative = 0.00730683
smoothSolver:  Solving for omega, Initial residual = 0.00899792, Final residual = 0.000615899, No Iterations 6
smoothSolver:  Solving for k, Initial residual = 0.065518, Final residual = 0.00515205, No Iterations 6
ExecutionTime = 0.27 s  ClockTime = 0 s

scalarTransport execute: age
smoothSolver:  Solving for age, Initial residual = 0.0272756, Final residual = 0.00209233, No Iterations 4

Time = 21

smoothSolver:  Solving for Ux, Initial residual = 0.0238957, Final residual = 0.00175254, No Iterations 6
smoothSolver:  Solving for Uy, Initial residual = 0.0144306, Final residual = 0.00100769, No Iterations 6
GAMG:  Solving for p, Initial residual = 0.0147774, Final residual = 0.000795985, No Iterations 2
time step continuity errors : sum local = 0.00211375, global = 0.000264013, cumulative = 0.00757084
smoothSolver:  Solving for omega, Initial residual = 0.00819492, Final residual = 0.00056275, No Iterations 6
smoothSolver:  Solving for k, Initial residual = 0.0616812, Final residual = 0.00487003, No Iterations 6
ExecutionTime = 0.28 s  ClockTime = 0 s

scalarTransport execute: age
smoothSolver:  Solving for age, Initial residual = 0.0242167, Final residual = 0.00196925, No Iterations 4

Time = 22

smoothSolver:  Solving for Ux, Initial residual = 0.0234598, Final residual = 0.00172831, No Iterations 6
smoothSolver:  Solving for Uy, Initial residual = 0.0141737, Final residual = 0.000993095, No Iterations 6
GAMG:  Solving for p, Initial residual = 0.014214, Final residual = 0.000809189, No Iterations 2
time step continuity errors : sum local = 0.00213475, global = 0.000254851, cumulative = 0.00782569
smoothSolver:  Solving for omega, Initial residual = 0.00750379, Final residual = 0.000516135, No Iterations 6
smoothSolver:  Solving for k, Initial residual = 0.0582425, Final residual = 0.00461469, No Iterations 6
ExecutionTime = 0.3 s  ClockTime = 0 s

scalarTransport execute: age
smoothSolver:  Solving for age, Initial residual = 0.0219998, Final residual = 0.00196545, No Iterations 4

Time = 23

smoothSolver:  Solving for Ux, Initial residual = 0.0230976, Final residual = 0.00170663, No Iterations 6
smoothSolver:  Solving for Uy, Initial residual = 0.0138987, Final residual = 0.000978412, No Iterations 6
GAMG:  Solving for p, Initial residual = 0.0136903, Final residual = 0.000822672, No Iterations 2
time step continuity errors : sum local = 0.00215962, global = 0.000238903, cumulative = 0.00806459
smoothSolver:  Solving for omega, Initial residual = 0.00689365, Final residual = 0.000474986, No Iterations 6
smoothSolver:  Solving for k, Initial residual = 0.0551409, Final residual = 0.00438224, No Iterations 6
ExecutionTime = 0.31 s  ClockTime = 0 s

scalarTransport execute: age
smoothSolver:  Solving for age, Initial residual = 0.0206476, Final residual = 0.00160904, No Iterations 5

Time = 24

smoothSolver:  Solving for Ux, Initial residual = 0.0227219, Final residual = 0.00168721, No Iterations 6
smoothSolver:  Solving for Uy, Initial residual = 0.0136113, Final residual = 0.000961706, No Iterations 6
GAMG:  Solving for p, Initial residual = 0.0131007, Final residual = 0.000831088, No Iterations 2
time step continuity errors : sum local = 0.00217125, global = 0.000220685, cumulative = 0.00828528
smoothSolver:  Solving for omega, Initial residual = 0.00635807, Final residual = 0.000438514, No Iterations 6
smoothSolver:  Solving for k, Initial residual = 0.0523276, Final residual = 0.00416955, No Iterations 6
ExecutionTime = 0.32 s  ClockTime = 0 s

scalarTransport execute: age
smoothSolver:  Solving for age, Initial residual = 0.0194213, Final residual = 0.00155129, No Iterations 5

Time = 25

smoothSolver:  Solving for Ux, Initial residual = 0.0223947, Final residual = 0.00167016, No Iterations 6
smoothSolver:  Solving for Uy, Initial residual = 0.013326, Final residual = 0.000944221, No Iterations 6
GAMG:  Solving for p, Initial residual = 0.0125447, Final residual = 0.000829544, No Iterations 2
time step continuity errors : sum local = 0.0021581, global = 0.000200906, cumulative = 0.00848619
smoothSolver:  Solving for omega, Initial residual = 0.00588089, Final residual = 0.000406137, No Iterations 6
smoothSolver:  Solving for k, Initial residual = 0.0497604, Final residual = 0.00397408, No Iterations 6
ExecutionTime = 0.33 s  ClockTime = 0 s

scalarTransport execute: age
smoothSolver:  Solving for age, Initial residual = 0.0185076, Final residual = 0.00159049, No Iterations 5

Time = 26

smoothSolver:  Solving for Ux, Initial residual = 0.0220901, Final residual = 0.00165431, No Iterations 6
smoothSolver:  Solving for Uy, Initial residual = 0.013075, Final residual = 0.000926279, No Iterations 6
GAMG:  Solving for p, Initial residual = 0.0123108, Final residual = 0.00081524, No Iterations 2
time step continuity errors : sum local = 0.00211282, global = 0.000183612, cumulative = 0.0086698
smoothSolver:  Solving for omega, Initial residual = 0.00546088, Final residual = 0.000377412, No Iterations 6
smoothSolver:  Solving for k, Initial residual = 0.0474089, Final residual = 0.00379378, No Iterations 6
ExecutionTime = 0.34 s  ClockTime = 0 s

scalarTransport execute: age
smoothSolver:  Solving for age, Initial residual = 0.0178155, Final residual = 0.00165922, No Iterations 5

Time = 27

smoothSolver:  Solving for Ux, Initial residual = 0.0218069, Final residual = 0.0016406, No Iterations 6
smoothSolver:  Solving for Uy, Initial residual = 0.0128496, Final residual = 0.000909102, No Iterations 6
GAMG:  Solving for p, Initial residual = 0.0124375, Final residual = 0.000794827, No Iterations 2
time step continuity errors : sum local = 0.00205191, global = 0.000166963, cumulative = 0.00883676
smoothSolver:  Solving for omega, Initial residual = 0.00508891, Final residual = 0.000351819, No Iterations 6
smoothSolver:  Solving for k, Initial residual = 0.0452462, Final residual = 0.00362701, No Iterations 6
ExecutionTime = 0.35 s  ClockTime = 0 s

scalarTransport execute: age
smoothSolver:  Solving for age, Initial residual = 0.0174684, Final residual = 0.00136887, No Iterations 6

Time = 28

smoothSolver:  Solving for Ux, Initial residual = 0.0215943, Final residual = 0.00163026, No Iterations 6
smoothSolver:  Solving for Uy, Initial residual = 0.0126329, Final residual = 0.000891345, No Iterations 6
GAMG:  Solving for p, Initial residual = 0.0127151, Final residual = 0.000780246, No Iterations 2
time step continuity errors : sum local = 0.00200715, global = 0.000155004, cumulative = 0.00899176
smoothSolver:  Solving for omega, Initial residual = 0.00475726, Final residual = 0.000328657, No Iterations 6
smoothSolver:  Solving for k, Initial residual = 0.0432448, Final residual = 0.00347162, No Iterations 6
ExecutionTime = 0.37 s  ClockTime = 0 s

scalarTransport execute: age
smoothSolver:  Solving for age, Initial residual = 0.0172793, Final residual = 0.00137463, No Iterations 6

Time = 29

smoothSolver:  Solving for Ux, Initial residual = 0.0214602, Final residual = 0.00162248, No Iterations 6
smoothSolver:  Solving for Uy, Initial residual = 0.0124035, Final residual = 0.000873503, No Iterations 6
GAMG:  Solving for p, Initial residual = 0.0129761, Final residual = 0.000783112, No Iterations 2
time step continuity errors : sum local = 0.00200427, global = 0.000146581, cumulative = 0.00913835
smoothSolver:  Solving for omega, Initial residual = 0.00445876, Final residual = 0.000307577, No Iterations 6
smoothSolver:  Solving for k, Initial residual = 0.0413848, Final residual = 0.00332626, No Iterations 6
ExecutionTime = 0.38 s  ClockTime = 1 s

scalarTransport execute: age
smoothSolver:  Solving for age, Initial residual = 0.0172515, Final residual = 0.00140852, No Iterations 6

Time = 30

smoothSolver:  Solving for Ux, Initial residual = 0.0213757, Final residual = 0.0016164, No Iterations 6
smoothSolver:  Solving for Uy, Initial residual = 0.0121424, Final residual = 0.000853809, No Iterations 6
GAMG:  Solving for p, Initial residual = 0.0130372, Final residual = 0.000813167, No Iterations 2
time step continuity errors : sum local = 0.00207033, global = 0.000141006, cumulative = 0.00927935
smoothSolver:  Solving for omega, Initial residual = 0.00418729, Final residual = 0.000288284, No Iterations 6
smoothSolver:  Solving for k, Initial residual = 0.0396524, Final residual = 0.00319029, No Iterations 6
ExecutionTime = 0.39 s  ClockTime = 1 s

scalarTransport execute: age
smoothSolver:  Solving for age, Initial residual = 0.0173207, Final residual = 0.00146382, No Iterations 6

Time = 31

smoothSolver:  Solving for Ux, Initial residual = 0.0213266, Final residual = 0.00161066, No Iterations 6
smoothSolver:  Solving for Uy, Initial residual = 0.011832, Final residual = 0.000831969, No Iterations 6
GAMG:  Solving for p, Initial residual = 0.0128042, Final residual = 0.000833627, No Iterations 2
time step continuity errors : sum local = 0.00211327, global = 0.000137372, cumulative = 0.00941672
smoothSolver:  Solving for omega, Initial residual = 0.00394104, Final residual = 0.000270585, No Iterations 6
smoothSolver:  Solving for k, Initial residual = 0.0380348, Final residual = 0.00306293, No Iterations 6
ExecutionTime = 0.4 s  ClockTime = 1 s

scalarTransport execute: age
smoothSolver:  Solving for age, Initial residual = 0.017514, Final residual = 0.001528, No Iterations 6

Time = 32

smoothSolver:  Solving for Ux, Initial residual = 0.0212674, Final residual = 0.0016053, No Iterations 6
smoothSolver:  Solving for Uy, Initial residual = 0.0114717, Final residual = 0.000807804, No Iterations 6
GAMG:  Solving for p, Initial residual = 0.0123182, Final residual = 0.000834617, No Iterations 2
time step continuity errors : sum local = 0.00210719, global = 0.000133647, cumulative = 0.00955037
smoothSolver:  Solving for omega, Initial residual = 0.00371255, Final residual = 0.000254274, No Iterations 6
smoothSolver:  Solving for k, Initial residual = 0.0365232, Final residual = 0.00294358, No Iterations 6
ExecutionTime = 0.41 s  ClockTime = 1 s

scalarTransport execute: age
smoothSolver:  Solving for age, Initial residual = 0.0177631, Final residual = 0.00158151, No Iterations 6

Time = 33

smoothSolver:  Solving for Ux, Initial residual = 0.0212165, Final residual = 0.0015984, No Iterations 6
smoothSolver:  Solving for Uy, Initial residual = 0.0110762, Final residual = 0.000782304, No Iterations 6
GAMG:  Solving for p, Initial residual = 0.0116731, Final residual = 0.000823041, No Iterations 2
time step continuity errors : sum local = 0.00207095, global = 0.000128271, cumulative = 0.00967864
smoothSolver:  Solving for omega, Initial residual = 0.00350622, Final residual = 0.000239178, No Iterations 6
smoothSolver:  Solving for k, Initial residual = 0.035108, Final residual = 0.00283191, No Iterations 6
ExecutionTime = 0.43 s  ClockTime = 1 s

scalarTransport execute: age
smoothSolver:  Solving for age, Initial residual = 0.0179786, Final residual = 0.00163447, No Iterations 6

Time = 34

smoothSolver:  Solving for Ux, Initial residual = 0.0211325, Final residual = 0.00159169, No Iterations 6
smoothSolver:  Solving for Uy, Initial residual = 0.0106657, Final residual = 0.000757138, No Iterations 6
GAMG:  Solving for p, Initial residual = 0.0110407, Final residual = 0.000820012, No Iterations 2
time step continuity errors : sum local = 0.00205871, global = 0.000117443, cumulative = 0.00979608
smoothSolver:  Solving for omega, Initial residual = 0.00331722, Final residual = 0.000225174, No Iterations 6
smoothSolver:  Solving for k, Initial residual = 0.0337787, Final residual = 0.00272729, No Iterations 6
ExecutionTime = 0.44 s  ClockTime = 1 s

scalarTransport execute: age
smoothSolver:  Solving for age, Initial residual = 0.0181255, Final residual = 0.00168479, No Iterations 6

Time = 35

smoothSolver:  Solving for Ux, Initial residual = 0.0210451, Final residual = 0.00158318, No Iterations 6
smoothSolver:  Solving for Uy, Initial residual = 0.0102799, Final residual = 0.000733972, No Iterations 6
GAMG:  Solving for p, Initial residual = 0.0105915, Final residual = 0.000830607, No Iterations 2
time step continuity errors : sum local = 0.00208473, global = 0.000105679, cumulative = 0.00990176
smoothSolver:  Solving for omega, Initial residual = 0.00313949, Final residual = 0.000212158, No Iterations 6
smoothSolver:  Solving for k, Initial residual = 0.0325343, Final residual = 0.00262971, No Iterations 6
ExecutionTime = 0.45 s  ClockTime = 1 s

scalarTransport execute: age
smoothSolver:  Solving for age, Initial residual = 0.0193759, Final residual = 0.00173441, No Iterations 6

Time = 36

smoothSolver:  Solving for Ux, Initial residual = 0.0209329, Final residual = 0.00157402, No Iterations 6
smoothSolver:  Solving for Uy, Initial residual = 0.00996404, Final residual = 0.000714728, No Iterations 6
GAMG:  Solving for p, Initial residual = 0.0101175, Final residual = 0.000881542, No Iterations 2
time step continuity errors : sum local = 0.00220066, global = 9.64552e-05, cumulative = 0.00999822
smoothSolver:  Solving for omega, Initial residual = 0.00297428, Final residual = 0.000200044, No Iterations 6
smoothSolver:  Solving for k, Initial residual = 0.0313738, Final residual = 0.0025389, No Iterations 6
ExecutionTime = 0.46 s  ClockTime = 1 s

scalarTransport execute: age
smoothSolver:  Solving for age, Initial residual = 0.0190917, Final residual = 0.00179444, No Iterations 6

Time = 37

smoothSolver:  Solving for Ux, Initial residual = 0.0208409, Final residual = 0.00156381, No Iterations 6
smoothSolver:  Solving for Uy, Initial residual = 0.00969341, Final residual = 0.000698326, No Iterations 6
GAMG:  Solving for p, Initial residual = 0.00988652, Final residual = 0.000954988, No Iterations 2
time step continuity errors : sum local = 0.00237779, global = 8.92869e-05, cumulative = 0.0100875
smoothSolver:  Solving for omega, Initial residual = 0.00282076, Final residual = 0.000188776, No Iterations 6
smoothSolver:  Solving for k, Initial residual = 0.0302911, Final residual = 0.00245416, No Iterations 6
ExecutionTime = 0.47 s  ClockTime = 1 s

scalarTransport execute: age
smoothSolver:  Solving for age, Initial residual = 0.0189011, Final residual = 0.00187127, No Iterations 6

Time = 38

smoothSolver:  Solving for Ux, Initial residual = 0.0207495, Final residual = 0.00155171, No Iterations 6
smoothSolver:  Solving for Uy, Initial residual = 0.00943998, Final residual = 0.000683439, No Iterations 6
GAMG:  Solving for p, Initial residual = 0.00975605, Final residual = 0.000690899, No Iterations 3
time step continuity errors : sum local = 0.0017156, global = 9.42166e-05, cumulative = 0.0101817
smoothSolver:  Solving for omega, Initial residual = 0.00269626, Final residual = 0.000178668, No Iterations 6
smoothSolver:  Solving for k, Initial residual = 0.029283, Final residual = 0.00237518, No Iterations 6
ExecutionTime = 0.49 s  ClockTime = 1 s

scalarTransport execute: age
smoothSolver:  Solving for age, Initial residual = 0.0191226, Final residual = 0.00167056, No Iterations 7

Time = 39

smoothSolver:  Solving for Ux, Initial residual = 0.0208243, Final residual = 0.00154997, No Iterations 6
smoothSolver:  Solving for Uy, Initial residual = 0.00933961, Final residual = 0.000677852, No Iterations 6
GAMG:  Solving for p, Initial residual = 0.00962902, Final residual = 0.000843441, No Iterations 2
time step continuity errors : sum local = 0.00208376, global = 8.06139e-05, cumulative = 0.0102623
smoothSolver:  Solving for omega, Initial residual = 0.00253727, Final residual = 0.000168505, No Iterations 6
smoothSolver:  Solving for k, Initial residual = 0.0283428, Final residual = 0.00230137, No Iterations 6
ExecutionTime = 0.5 s  ClockTime = 1 s

scalarTransport execute: age
smoothSolver:  Solving for age, Initial residual = 0.0191023, Final residual = 0.00166754, No Iterations 7

Time = 40

smoothSolver:  Solving for Ux, Initial residual = 0.0205656, Final residual = 0.00153301, No Iterations 6
smoothSolver:  Solving for Uy, Initial residual = 0.00901441, Final residual = 0.00066005, No Iterations 6
GAMG:  Solving for p, Initial residual = 0.00947242, Final residual = 0.000570427, No Iterations 3
time step continuity errors : sum local = 0.0014073, global = 8.34907e-05, cumulative = 0.0103458
smoothSolver:  Solving for omega, Initial residual = 0.00241314, Final residual = 0.000159376, No Iterations 6
smoothSolver:  Solving for k, Initial residual = 0.0274702, Final residual = 0.00223211, No Iterations 6
ExecutionTime = 0.51 s  ClockTime = 1 s

scalarTransport execute: age
smoothSolver:  Solving for age, Initial residual = 0.0190884, Final residual = 0.00170643, No Iterations 7

Time = 41

smoothSolver:  Solving for Ux, Initial residual = 0.0204109, Final residual = 0.00151025, No Iterations 6
smoothSolver:  Solving for Uy, Initial residual = 0.00885477, Final residual = 0.000649806, No Iterations 6
GAMG:  Solving for p, Initial residual = 0.00916542, Final residual = 0.000905042, No Iterations 2
time step continuity errors : sum local = 0.00223179, global = 7.06237e-05, cumulative = 0.0104165
smoothSolver:  Solving for omega, Initial residual = 0.00229668, Final residual = 0.00015087, No Iterations 6
smoothSolver:  Solving for k, Initial residual = 0.0266497, Final residual = 0.00216668, No Iterations 6
ExecutionTime = 0.52 s  ClockTime = 1 s

scalarTransport execute: age
smoothSolver:  Solving for age, Initial residual = 0.019008, Final residual = 0.00174784, No Iterations 7

Time = 42

smoothSolver:  Solving for Ux, Initial residual = 0.0201316, Final residual = 0.0014902, No Iterations 6
smoothSolver:  Solving for Uy, Initial residual = 0.00867553, Final residual = 0.000638794, No Iterations 6
GAMG:  Solving for p, Initial residual = 0.00917953, Final residual = 0.000692873, No Iterations 3
time step continuity errors : sum local = 0.00170587, global = 8.26614e-05, cumulative = 0.0104991
smoothSolver:  Solving for omega, Initial residual = 0.00218716, Final residual = 0.000142709, No Iterations 6
smoothSolver:  Solving for k, Initial residual = 0.0258917, Final residual = 0.00210517, No Iterations 6
ExecutionTime = 0.54 s  ClockTime = 1 s

scalarTransport execute: age
smoothSolver:  Solving for age, Initial residual = 0.0191863, Final residual = 0.0018299, No Iterations 7

Time = 43

smoothSolver:  Solving for Ux, Initial residual = 0.0200261, Final residual = 0.00146978, No Iterations 6
smoothSolver:  Solving for Uy, Initial residual = 0.00869439, Final residual = 0.000645253, No Iterations 6
GAMG:  Solving for p, Initial residual = 0.00894319, Final residual = 0.000563034, No Iterations 3
time step continuity errors : sum local = 0.0013844, global = 7.67523e-05, cumulative = 0.0105759
smoothSolver:  Solving for omega, Initial residual = 0.00209084, Final residual = 0.000208323, No Iterations 5
smoothSolver:  Solving for k, Initial residual = 0.0251899, Final residual = 0.00204831, No Iterations 6
ExecutionTime = 0.55 s  ClockTime = 1 s

scalarTransport execute: age
smoothSolver:  Solving for age, Initial residual = 0.0193616, Final residual = 0.00165094, No Iterations 8

Time = 44

smoothSolver:  Solving for Ux, Initial residual = 0.0198839, Final residual = 0.00145976, No Iterations 6
smoothSolver:  Solving for Uy, Initial residual = 0.00865072, Final residual = 0.000643599, No Iterations 6
GAMG:  Solving for p, Initial residual = 0.0086375, Final residual = 0.000546909, No Iterations 3
time step continuity errors : sum local = 0.00133964, global = 7.00702e-05, cumulative = 0.0106459
smoothSolver:  Solving for omega, Initial residual = 0.00199467, Final residual = 0.000198366, No Iterations 5
smoothSolver:  Solving for k, Initial residual = 0.0245405, Final residual = 0.00199525, No Iterations 6
ExecutionTime = 0.56 s  ClockTime = 1 s

scalarTransport execute: age
smoothSolver:  Solving for age, Initial residual = 0.019491, Final residual = 0.0017488, No Iterations 8

Time = 45

smoothSolver:  Solving for Ux, Initial residual = 0.0196956, Final residual = 0.00144691, No Iterations 6
smoothSolver:  Solving for Uy, Initial residual = 0.00859078, Final residual = 0.00064324, No Iterations 6
GAMG:  Solving for p, Initial residual = 0.00839718, Final residual = 0.000532535, No Iterations 3
time step continuity errors : sum local = 0.00130079, global = 6.75272e-05, cumulative = 0.0107135
smoothSolver:  Solving for omega, Initial residual = 0.00190957, Final residual = 0.000189041, No Iterations 5
smoothSolver:  Solving for k, Initial residual = 0.0239243, Final residual = 0.00194486, No Iterations 6
ExecutionTime = 0.57 s  ClockTime = 1 s

scalarTransport execute: age
smoothSolver:  Solving for age, Initial residual = 0.0196873, Final residual = 0.00185084, No Iterations 8

Time = 46

smoothSolver:  Solving for Ux, Initial residual = 0.0194816, Final residual = 0.00143059, No Iterations 6
smoothSolver:  Solving for Uy, Initial residual = 0.00854273, Final residual = 0.000643197, No Iterations 6
GAMG:  Solving for p, Initial residual = 0.00814506, Final residual = 0.000545574, No Iterations 3
time step continuity errors : sum local = 0.00132905, global = 6.69015e-05, cumulative = 0.0107804
smoothSolver:  Solving for omega, Initial residual = 0.00183189, Final residual = 0.00018014, No Iterations 5
smoothSolver:  Solving for k, Initial residual = 0.0233405, Final residual = 0.00189691, No Iterations 6
ExecutionTime = 0.59 s  ClockTime = 1 s

scalarTransport execute: age
smoothSolver:  Solving for age, Initial residual = 0.0198621, Final residual = 0.00193277, No Iterations 8

Time = 47

smoothSolver:  Solving for Ux, Initial residual = 0.0192621, Final residual = 0.00141314, No Iterations 6
smoothSolver:  Solving for Uy, Initial residual = 0.00853148, Final residual = 0.000646605, No Iterations 6
GAMG:  Solving for p, Initial residual = 0.00790062, Final residual = 0.000546224, No Iterations 3
time step continuity errors : sum local = 0.0013267, global = 7.09159e-05, cumulative = 0.0108513
smoothSolver:  Solving for omega, Initial residual = 0.00175652, Final residual = 0.000171655, No Iterations 5
smoothSolver:  Solving for k, Initial residual = 0.0227844, Final residual = 0.00185109, No Iterations 6
ExecutionTime = 0.6 s  ClockTime = 1 s

scalarTransport execute: age
smoothSolver:  Solving for age, Initial residual = 0.0199901, Final residual = 0.00199038, No Iterations 8

Time = 48

smoothSolver:  Solving for Ux, Initial residual = 0.0190266, Final residual = 0.00139484, No Iterations 6
smoothSolver:  Solving for Uy, Initial residual = 0.00854226, Final residual = 0.000651473, No Iterations 6
GAMG:  Solving for p, Initial residual = 0.00762318, Final residual = 0.000539813, No Iterations 3
time step continuity errors : sum local = 0.00130781, global = 7.34704e-05, cumulative = 0.0109247
smoothSolver:  Solving for omega, Initial residual = 0.001687, Final residual = 0.000163726, No Iterations 5
smoothSolver:  Solving for k, Initial residual = 0.022256, Final residual = 0.00180737, No Iterations 6
ExecutionTime = 0.61 s  ClockTime = 1 s

scalarTransport execute: age
smoothSolver:  Solving for age, Initial residual = 0.0200678, Final residual = 0.00172199, No Iterations 9

Time = 49

smoothSolver:  Solving for Ux, Initial residual = 0.0188032, Final residual = 0.00137853, No Iterations 6
smoothSolver:  Solving for Uy, Initial residual = 0.00855142, Final residual = 0.000655755, No Iterations 6
GAMG:  Solving for p, Initial residual = 0.00737682, Final residual = 0.000527901, No Iterations 3
time step continuity errors : sum local = 0.00127451, global = 7.32951e-05, cumulative = 0.010998
smoothSolver:  Solving for omega, Initial residual = 0.00161821, Final residual = 0.000156238, No Iterations 5
smoothSolver:  Solving for k, Initial residual = 0.0217538, Final residual = 0.00176546, No Iterations 6
ExecutionTime = 0.62 s  ClockTime = 1 s

scalarTransport execute: age
smoothSolver:  Solving for age, Initial residual = 0.019973, Final residual = 0.00170488, No Iterations 9

Time = 50

smoothSolver:  Solving for Ux, Initial residual = 0.0185627, Final residual = 0.00136188, No Iterations 6
smoothSolver:  Solving for Uy, Initial residual = 0.00856988, Final residual = 0.000660614, No Iterations 6
GAMG:  Solving for p, Initial residual = 0.00715939, Final residual = 0.000527782, No Iterations 3
time step continuity errors : sum local = 0.00126975, global = 7.48606e-05, cumulative = 0.0110729
smoothSolver:  Solving for omega, Initial residual = 0.00155459, Final residual = 0.000149142, No Iterations 5
smoothSolver:  Solving for k, Initial residual = 0.0212736, Final residual = 0.00172522, No Iterations 6
ExecutionTime = 0.63 s  ClockTime = 1 s

scalarTransport execute: age
smoothSolver:  Solving for age, Initial residual = 0.0199101, Final residual = 0.00196062, No Iterations 8

Time = 51

smoothSolver:  Solving for Ux, Initial residual = 0.0182976, Final residual = 0.00134383, No Iterations 6
smoothSolver:  Solving for Uy, Initial residual = 0.00860357, Final residual = 0.000666984, No Iterations 6
GAMG:  Solving for p, Initial residual = 0.00698949, Final residual = 0.000525024, No Iterations 3
time step continuity errors : sum local = 0.00125841, global = 7.84429e-05, cumulative = 0.0111513
smoothSolver:  Solving for omega, Initial residual = 0.00150587, Final residual = 0.000142266, No Iterations 5
smoothSolver:  Solving for k, Initial residual = 0.0208157, Final residual = 0.00168661, No Iterations 6
ExecutionTime = 0.65 s  ClockTime = 1 s

scalarTransport execute: age
smoothSolver:  Solving for age, Initial residual = 0.0199083, Final residual = 0.00193298, No Iterations 8

Time = 52

smoothSolver:  Solving for Ux, Initial residual = 0.0180406, Final residual = 0.00132601, No Iterations 6
smoothSolver:  Solving for Uy, Initial residual = 0.00863468, Final residual = 0.00067245, No Iterations 6
GAMG:  Solving for p, Initial residual = 0.00684337, Final residual = 0.00052932, No Iterations 3
time step continuity errors : sum local = 0.00126401, global = 8.05185e-05, cumulative = 0.0112319
smoothSolver:  Solving for omega, Initial residual = 0.00145331, Final residual = 0.00013594, No Iterations 5
smoothSolver:  Solving for k, Initial residual = 0.0203755, Final residual = 0.00164933, No Iterations 6
ExecutionTime = 0.66 s  ClockTime = 1 s

scalarTransport execute: age
smoothSolver:  Solving for age, Initial residual = 0.019811, Final residual = 0.0018806, No Iterations 8

Time = 53

smoothSolver:  Solving for Ux, Initial residual = 0.017796, Final residual = 0.00130823, No Iterations 6
smoothSolver:  Solving for Uy, Initial residual = 0.00867159, Final residual = 0.00067717, No Iterations 6
GAMG:  Solving for p, Initial residual = 0.0067289, Final residual = 0.0005319, No Iterations 3
time step continuity errors : sum local = 0.00126547, global = 8.13778e-05, cumulative = 0.0113132
smoothSolver:  Solving for omega, Initial residual = 0.00140016, Final residual = 0.000129964, No Iterations 5
smoothSolver:  Solving for k, Initial residual = 0.0199494, Final residual = 0.00161325, No Iterations 6
ExecutionTime = 0.67 s  ClockTime = 1 s

scalarTransport execute: age
smoothSolver:  Solving for age, Initial residual = 0.0197661, Final residual = 0.00183492, No Iterations 8

Time = 54

smoothSolver:  Solving for Ux, Initial residual = 0.0175628, Final residual = 0.00129064, No Iterations 6
smoothSolver:  Solving for Uy, Initial residual = 0.00869885, Final residual = 0.000680729, No Iterations 6
GAMG:  Solving for p, Initial residual = 0.00666534, Final residual = 0.000536595, No Iterations 3
time step continuity errors : sum local = 0.00127182, global = 8.13377e-05, cumulative = 0.0113946
smoothSolver:  Solving for omega, Initial residual = 0.00135598, Final residual = 0.000124108, No Iterations 5
smoothSolver:  Solving for k, Initial residual = 0.0195387, Final residual = 0.0015784, No Iterations 6
ExecutionTime = 0.68 s  ClockTime = 1 s

scalarTransport execute: age
smoothSolver:  Solving for age, Initial residual = 0.0197626, Final residual = 0.00180067, No Iterations 8

Time = 55

smoothSolver:  Solving for Ux, Initial residual = 0.0173454, Final residual = 0.00127356, No Iterations 6
smoothSolver:  Solving for Uy, Initial residual = 0.00871254, Final residual = 0.000682882, No Iterations 6
GAMG:  Solving for p, Initial residual = 0.00669961, Final residual = 0.000540573, No Iterations 3
time step continuity errors : sum local = 0.00127705, global = 8.03949e-05, cumulative = 0.011475
smoothSolver:  Solving for omega, Initial residual = 0.00131338, Final residual = 0.000118886, No Iterations 5
smoothSolver:  Solving for k, Initial residual = 0.01914, Final residual = 0.00154449, No Iterations 6
ExecutionTime = 0.7 s  ClockTime = 1 s

scalarTransport execute: age
smoothSolver:  Solving for age, Initial residual = 0.01988, Final residual = 0.00183048, No Iterations 8

Time = 56

smoothSolver:  Solving for Ux, Initial residual = 0.0171491, Final residual = 0.00125713, No Iterations 6
smoothSolver:  Solving for Uy, Initial residual = 0.00871389, Final residual = 0.000683681, No Iterations 6
GAMG:  Solving for p, Initial residual = 0.00666244, Final residual = 0.000541732, No Iterations 3
time step continuity errors : sum local = 0.00127326, global = 7.88972e-05, cumulative = 0.0115539
smoothSolver:  Solving for omega, Initial residual = 0.00127584, Final residual = 0.000114034, No Iterations 5
smoothSolver:  Solving for k, Initial residual = 0.0187512, Final residual = 0.00151145, No Iterations 6
ExecutionTime = 0.71 s  ClockTime = 1 s

scalarTransport execute: age
smoothSolver:  Solving for age, Initial residual = 0.0200597, Final residual = 0.00189974, No Iterations 8

Time = 57

smoothSolver:  Solving for Ux, Initial residual = 0.0169648, Final residual = 0.00124139, No Iterations 6
smoothSolver:  Solving for Uy, Initial residual = 0.00870371, Final residual = 0.000682988, No Iterations 6
GAMG:  Solving for p, Initial residual = 0.00665008, Final residual = 0.000548043, No Iterations 3
time step continuity errors : sum local = 0.00128198, global = 7.92386e-05, cumulative = 0.0116331
smoothSolver:  Solving for omega, Initial residual = 0.00123946, Final residual = 0.000109434, No Iterations 5
smoothSolver:  Solving for k, Initial residual = 0.0183719, Final residual = 0.00147915, No Iterations 6
ExecutionTime = 0.72 s  ClockTime = 1 s

scalarTransport execute: age
smoothSolver:  Solving for age, Initial residual = 0.0202182, Final residual = 0.00196615, No Iterations 8

Time = 58

smoothSolver:  Solving for Ux, Initial residual = 0.0167825, Final residual = 0.00122629, No Iterations 6
smoothSolver:  Solving for Uy, Initial residual = 0.00867913, Final residual = 0.00068064, No Iterations 6
GAMG:  Solving for p, Initial residual = 0.00666565, Final residual = 0.000545043, No Iterations 3
time step continuity errors : sum local = 0.00126886, global = 7.40329e-05, cumulative = 0.0117071
smoothSolver:  Solving for omega, Initial residual = 0.00120518, Final residual = 0.000105011, No Iterations 5
smoothSolver:  Solving for k, Initial residual = 0.0180011, Final residual = 0.00144763, No Iterations 6
ExecutionTime = 0.73 s  ClockTime = 1 s

scalarTransport execute: age
smoothSolver:  Solving for age, Initial residual = 0.0203776, Final residual = 0.00175078, No Iterations 9

Time = 59

smoothSolver:  Solving for Ux, Initial residual = 0.0166195, Final residual = 0.00121266, No Iterations 6
smoothSolver:  Solving for Uy, Initial residual = 0.00862186, Final residual = 0.000675281, No Iterations 6
GAMG:  Solving for p, Initial residual = 0.00670532, Final residual = 0.000556409, No Iterations 3
time step continuity errors : sum local = 0.00128902, global = 6.83615e-05, cumulative = 0.0117755
smoothSolver:  Solving for omega, Initial residual = 0.00117243, Final residual = 0.000100873, No Iterations 5
smoothSolver:  Solving for k, Initial residual = 0.0176388, Final residual = 0.00141677, No Iterations 6
ExecutionTime = 0.74 s  ClockTime = 1 s

scalarTransport execute: age
smoothSolver:  Solving for age, Initial residual = 0.020383, Final residual = 0.00180556, No Iterations 9

Time = 60

smoothSolver:  Solving for Ux, Initial residual = 0.0164456, Final residual = 0.00119872, No Iterations 6
smoothSolver:  Solving for Uy, Initial residual = 0.00855716, Final residual = 0.000669862, No Iterations 6
GAMG:  Solving for p, Initial residual = 0.00676643, Final residual = 0.000557939, No Iterations 3
time step continuity errors : sum local = 0.00128727, global = 6.48586e-05, cumulative = 0.0118404
smoothSolver:  Solving for omega, Initial residual = 0.00114223, Final residual = 9.71095e-05, No Iterations 5
smoothSolver:  Solving for k, Initial residual = 0.0172825, Final residual = 0.00138643, No Iterations 6
ExecutionTime = 0.76 s  ClockTime = 1 s

scalarTransport execute: age
smoothSolver:  Solving for age, Initial residual = 0.0201581, Final residual = 0.00181298, No Iterations 9

Time = 61

smoothSolver:  Solving for Ux, Initial residual = 0.0162664, Final residual = 0.00118431, No Iterations 6
smoothSolver:  Solving for Uy, Initial residual = 0.00847759, Final residual = 0.000663104, No Iterations 6
GAMG:  Solving for p, Initial residual = 0.00682646, Final residual = 0.000567542, No Iterations 3
time step continuity errors : sum local = 0.00130472, global = 6.40917e-05, cumulative = 0.0119045
smoothSolver:  Solving for omega, Initial residual = 0.00111638, Final residual = 9.36316e-05, No Iterations 5
smoothSolver:  Solving for k, Initial residual = 0.0169332, Final residual = 0.0013566, No Iterations 6
ExecutionTime = 0.77 s  ClockTime = 1 s

scalarTransport execute: age
smoothSolver:  Solving for age, Initial residual = 0.0200317, Final residual = 0.001834, No Iterations 9

Time = 62

smoothSolver:  Solving for Ux, Initial residual = 0.0160835, Final residual = 0.00116987, No Iterations 6
smoothSolver:  Solving for Uy, Initial residual = 0.0083835, Final residual = 0.000655401, No Iterations 6
GAMG:  Solving for p, Initial residual = 0.00691688, Final residual = 0.000566973, No Iterations 3
time step continuity errors : sum local = 0.00129929, global = 6.38209e-05, cumulative = 0.0119683
smoothSolver:  Solving for omega, Initial residual = 0.00109099, Final residual = 9.04074e-05, No Iterations 5
smoothSolver:  Solving for k, Initial residual = 0.0165893, Final residual = 0.00132722, No Iterations 6
ExecutionTime = 0.78 s  ClockTime = 1 s

scalarTransport execute: age
smoothSolver:  Solving for age, Initial residual = 0.0197686, Final residual = 0.00183309, No Iterations 9

Time = 63

smoothSolver:  Solving for Ux, Initial residual = 0.0159018, Final residual = 0.00115543, No Iterations 6
smoothSolver:  Solving for Uy, Initial residual = 0.00827161, Final residual = 0.000645767, No Iterations 6
GAMG:  Solving for p, Initial residual = 0.00696914, Final residual = 0.000571061, No Iterations 3
time step continuity errors : sum local = 0.00130452, global = 6.40216e-05, cumulative = 0.0120323
smoothSolver:  Solving for omega, Initial residual = 0.00106784, Final residual = 8.73949e-05, No Iterations 5
smoothSolver:  Solving for k, Initial residual = 0.0162499, Final residual = 0.00129823, No Iterations 6
ExecutionTime = 0.79 s  ClockTime = 1 s

scalarTransport execute: age
smoothSolver:  Solving for age, Initial residual = 0.019565, Final residual = 0.00184067, No Iterations 9

Time = 64

smoothSolver:  Solving for Ux, Initial residual = 0.0157144, Final residual = 0.00114111, No Iterations 6
smoothSolver:  Solving for Uy, Initial residual = 0.00813992, Final residual = 0.000634789, No Iterations 6
GAMG:  Solving for p, Initial residual = 0.00706597, Final residual = 0.000567797, No Iterations 3
time step continuity errors : sum local = 0.00129252, global = 6.45612e-05, cumulative = 0.0120969
smoothSolver:  Solving for omega, Initial residual = 0.00104655, Final residual = 8.45895e-05, No Iterations 5
smoothSolver:  Solving for k, Initial residual = 0.0159146, Final residual = 0.00126954, No Iterations 6
ExecutionTime = 0.8 s  ClockTime = 1 s

scalarTransport execute: age
smoothSolver:  Solving for age, Initial residual = 0.0191405, Final residual = 0.00182456, No Iterations 9

Time = 65

smoothSolver:  Solving for Ux, Initial residual = 0.0155223, Final residual = 0.00112667, No Iterations 6
smoothSolver:  Solving for Uy, Initial residual = 0.00799228, Final residual = 0.000622443, No Iterations 6
GAMG:  Solving for p, Initial residual = 0.00713773, Final residual = 0.000568691, No Iterations 3
time step continuity errors : sum local = 0.00129007, global = 6.50598e-05, cumulative = 0.0121619
smoothSolver:  Solving for omega, Initial residual = 0.00102725, Final residual = 8.19869e-05, No Iterations 5
smoothSolver:  Solving for k, Initial residual = 0.0155809, Final residual = 0.00124104, No Iterations 6
ExecutionTime = 0.82 s  ClockTime = 1 s

scalarTransport execute: age
smoothSolver:  Solving for age, Initial residual = 0.0185407, Final residual = 0.0017913, No Iterations 9

Time = 66

smoothSolver:  Solving for Ux, Initial residual = 0.0153224, Final residual = 0.00111186, No Iterations 6
smoothSolver:  Solving for Uy, Initial residual = 0.00783361, Final residual = 0.000609145, No Iterations 6
GAMG:  Solving for p, Initial residual = 0.00717603, Final residual = 0.000572331, No Iterations 3
time step continuity errors : sum local = 0.00129387, global = 6.80049e-05, cumulative = 0.0122299
smoothSolver:  Solving for omega, Initial residual = 0.0010086, Final residual = 7.95298e-05, No Iterations 5
smoothSolver:  Solving for k, Initial residual = 0.0152504, Final residual = 0.00121276, No Iterations 6
ExecutionTime = 0.83 s  ClockTime = 1 s

scalarTransport execute: age
smoothSolver:  Solving for age, Initial residual = 0.0178401, Final residual = 0.00174455, No Iterations 9

Time = 67

smoothSolver:  Solving for Ux, Initial residual = 0.015104, Final residual = 0.00109554, No Iterations 6
smoothSolver:  Solving for Uy, Initial residual = 0.00767241, Final residual = 0.000595926, No Iterations 6
GAMG:  Solving for p, Initial residual = 0.0072332, Final residual = 0.000559667, No Iterations 3
time step continuity errors : sum local = 0.00126141, global = 6.9978e-05, cumulative = 0.0122999
smoothSolver:  Solving for omega, Initial residual = 0.00099147, Final residual = 7.71967e-05, No Iterations 5
smoothSolver:  Solving for k, Initial residual = 0.0149221, Final residual = 0.00118468, No Iterations 6
ExecutionTime = 0.84 s  ClockTime = 1 s

scalarTransport execute: age
smoothSolver:  Solving for age, Initial residual = 0.0171801, Final residual = 0.00150295, No Iterations 10

Time = 68

smoothSolver:  Solving for Ux, Initial residual = 0.0148806, Final residual = 0.00107862, No Iterations 6
smoothSolver:  Solving for Uy, Initial residual = 0.00750125, Final residual = 0.000581751, No Iterations 6
GAMG:  Solving for p, Initial residual = 0.0073614, Final residual = 0.000549485, No Iterations 3
time step continuity errors : sum local = 0.00123499, global = 6.99843e-05, cumulative = 0.0123699
smoothSolver:  Solving for omega, Initial residual = 0.000974558, Final residual = 7.49476e-05, No Iterations 5
smoothSolver:  Solving for k, Initial residual = 0.0145982, Final residual = 0.00115678, No Iterations 6
ExecutionTime = 0.85 s  ClockTime = 1 s

scalarTransport execute: age
smoothSolver:  Solving for age, Initial residual = 0.0163332, Final residual = 0.001474, No Iterations 10

Time = 69

smoothSolver:  Solving for Ux, Initial residual = 0.0146493, Final residual = 0.001061, No Iterations 6
smoothSolver:  Solving for Uy, Initial residual = 0.00733064, Final residual = 0.000567986, No Iterations 6
GAMG:  Solving for p, Initial residual = 0.00750419, Final residual = 0.000528961, No Iterations 3
time step continuity errors : sum local = 0.00118625, global = 6.9003e-05, cumulative = 0.0124389
smoothSolver:  Solving for omega, Initial residual = 0.000957308, Final residual = 7.28149e-05, No Iterations 5
smoothSolver:  Solving for k, Initial residual = 0.0142754, Final residual = 0.00112901, No Iterations 6
ExecutionTime = 0.87 s  ClockTime = 1 s

scalarTransport execute: age
smoothSolver:  Solving for age, Initial residual = 0.0155746, Final residual = 0.00144099, No Iterations 10

Time = 70

smoothSolver:  Solving for Ux, Initial residual = 0.0144078, Final residual = 0.00104262, No Iterations 6
smoothSolver:  Solving for Uy, Initial residual = 0.00717175, Final residual = 0.000556028, No Iterations 6
GAMG:  Solving for p, Initial residual = 0.00757439, Final residual = 0.000511313, No Iterations 3
time step continuity errors : sum local = 0.00114462, global = 6.78959e-05, cumulative = 0.0125068
smoothSolver:  Solving for omega, Initial residual = 0.000939537, Final residual = 7.07215e-05, No Iterations 5
smoothSolver:  Solving for k, Initial residual = 0.0139532, Final residual = 0.00110129, No Iterations 6
ExecutionTime = 0.88 s  ClockTime = 1 s

scalarTransport execute: age
smoothSolver:  Solving for age, Initial residual = 0.0148524, Final residual = 0.00140893, No Iterations 10

Time = 71

smoothSolver:  Solving for Ux, Initial residual = 0.0141581, Final residual = 0.00102361, No Iterations 6
smoothSolver:  Solving for Uy, Initial residual = 0.00703699, Final residual = 0.000545873, No Iterations 6
GAMG:  Solving for p, Initial residual = 0.00760051, Final residual = 0.000492497, No Iterations 3
time step continuity errors : sum local = 0.00110119, global = 6.69022e-05, cumulative = 0.0125737
smoothSolver:  Solving for omega, Initial residual = 0.000922038, Final residual = 6.86769e-05, No Iterations 5
smoothSolver:  Solving for k, Initial residual = 0.013631, Final residual = 0.00107363, No Iterations 6
ExecutionTime = 0.89 s  ClockTime = 1 s

scalarTransport execute: age
smoothSolver:  Solving for age, Initial residual = 0.0141833, Final residual = 0.0013792, No Iterations 10

Time = 72

smoothSolver:  Solving for Ux, Initial residual = 0.0138968, Final residual = 0.00100405, No Iterations 6
smoothSolver:  Solving for Uy, Initial residual = 0.00692264, Final residual = 0.000537432, No Iterations 6
GAMG:  Solving for p, Initial residual = 0.00757471, Final residual = 0.000476353, No Iterations 3
time step continuity errors : sum local = 0.00106483, global = 6.21683e-05, cumulative = 0.0126359
smoothSolver:  Solving for omega, Initial residual = 0.000905265, Final residual = 6.66711e-05, No Iterations 5
smoothSolver:  Solving for k, Initial residual = 0.0133097, Final residual = 0.00104606, No Iterations 6
ExecutionTime = 0.9 s  ClockTime = 1 s

scalarTransport execute: age
smoothSolver:  Solving for age, Initial residual = 0.0135712, Final residual = 0.00135493, No Iterations 10

Time = 73

smoothSolver:  Solving for Ux, Initial residual = 0.0136312, Final residual = 0.000984076, No Iterations 6
smoothSolver:  Solving for Uy, Initial residual = 0.00681776, Final residual = 0.000529808, No Iterations 6
GAMG:  Solving for p, Initial residual = 0.00750277, Final residual = 0.000457322, No Iterations 3
time step continuity errors : sum local = 0.00102208, global = 6.04695e-05, cumulative = 0.0126963
smoothSolver:  Solving for omega, Initial residual = 0.000887639, Final residual = 6.46897e-05, No Iterations 5
smoothSolver:  Solving for k, Initial residual = 0.0129899, Final residual = 0.00101863, No Iterations 6
ExecutionTime = 0.92 s  ClockTime = 1 s

scalarTransport execute: age
smoothSolver:  Solving for age, Initial residual = 0.0130281, Final residual = 0.00117525, No Iterations 11

Time = 74

smoothSolver:  Solving for Ux, Initial residual = 0.0133549, Final residual = 0.000963483, No Iterations 6
smoothSolver:  Solving for Uy, Initial residual = 0.0067261, Final residual = 0.000522926, No Iterations 6
GAMG:  Solving for p, Initial residual = 0.00740534, Final residual = 0.000444414, No Iterations 3
time step continuity errors : sum local = 0.000992882, global = 5.85346e-05, cumulative = 0.0127549
smoothSolver:  Solving for omega, Initial residual = 0.000870455, Final residual = 6.2716e-05, No Iterations 5
smoothSolver:  Solving for k, Initial residual = 0.012671, Final residual = 0.000991344, No Iterations 6
ExecutionTime = 0.93 s  ClockTime = 1 s

scalarTransport execute: age
smoothSolver:  Solving for age, Initial residual = 0.0124799, Final residual = 0.00115479, No Iterations 11

Time = 75

smoothSolver:  Solving for Ux, Initial residual = 0.0130705, Final residual = 0.000942238, No Iterations 6
smoothSolver:  Solving for Uy, Initial residual = 0.00664274, Final residual = 0.00051633, No Iterations 6
GAMG:  Solving for p, Initial residual = 0.00727611, Final residual = 0.000436257, No Iterations 3
time step continuity errors : sum local = 0.000974313, global = 5.66785e-05, cumulative = 0.0128115
smoothSolver:  Solving for omega, Initial residual = 0.000852581, Final residual = 6.07366e-05, No Iterations 5
smoothSolver:  Solving for k, Initial residual = 0.0123546, Final residual = 0.000964288, No Iterations 6
ExecutionTime = 0.94 s  ClockTime = 1 s

scalarTransport execute: age
smoothSolver:  Solving for age, Initial residual = 0.0119972, Final residual = 0.00113852, No Iterations 11

Time = 76

smoothSolver:  Solving for Ux, Initial residual = 0.0127867, Final residual = 0.000920533, No Iterations 6
smoothSolver:  Solving for Uy, Initial residual = 0.00656054, Final residual = 0.000509826, No Iterations 6
GAMG:  Solving for p, Initial residual = 0.00712386, Final residual = 0.000429164, No Iterations 3
time step continuity errors : sum local = 0.000957498, global = 5.48945e-05, cumulative = 0.0128664
smoothSolver:  Solving for omega, Initial residual = 0.000833652, Final residual = 5.87866e-05, No Iterations 5
smoothSolver:  Solving for k, Initial residual = 0.0120412, Final residual = 0.000937468, No Iterations 6
ExecutionTime = 0.95 s  ClockTime = 1 s

scalarTransport execute: age
smoothSolver:  Solving for age, Initial residual = 0.0115638, Final residual = 0.00112785, No Iterations 11

Time = 77

smoothSolver:  Solving for Ux, Initial residual = 0.0124995, Final residual = 0.000898473, No Iterations 6
smoothSolver:  Solving for Uy, Initial residual = 0.00647934, Final residual = 0.000503002, No Iterations 6
GAMG:  Solving for p, Initial residual = 0.00699907, Final residual = 0.000424102, No Iterations 3
time step continuity errors : sum local = 0.000945431, global = 5.31284e-05, cumulative = 0.0129196
smoothSolver:  Solving for omega, Initial residual = 0.000816273, Final residual = 5.68527e-05, No Iterations 5
smoothSolver:  Solving for k, Initial residual = 0.011732, Final residual = 0.000910937, No Iterations 6
ExecutionTime = 0.97 s  ClockTime = 1 s

scalarTransport execute: age
smoothSolver:  Solving for age, Initial residual = 0.0111928, Final residual = 0.000988881, No Iterations 12

Time = 78

smoothSolver:  Solving for Ux, Initial residual = 0.0122126, Final residual = 0.00087603, No Iterations 6
smoothSolver:  Solving for Uy, Initial residual = 0.00639624, Final residual = 0.000495799, No Iterations 6
GAMG:  Solving for p, Initial residual = 0.0068458, Final residual = 0.000419025, No Iterations 3
time step continuity errors : sum local = 0.000933242, global = 5.09527e-05, cumulative = 0.0129705
smoothSolver:  Solving for omega, Initial residual = 0.000797701, Final residual = 5.49479e-05, No Iterations 5
smoothSolver:  Solving for k, Initial residual = 0.0114275, Final residual = 0.000884763, No Iterations 6
ExecutionTime = 0.98 s  ClockTime = 1 s

scalarTransport execute: age
smoothSolver:  Solving for age, Initial residual = 0.0108461, Final residual = 0.000980276, No Iterations 12

Time = 79

smoothSolver:  Solving for Ux, Initial residual = 0.0119206, Final residual = 0.000853336, No Iterations 6
smoothSolver:  Solving for Uy, Initial residual = 0.00631133, Final residual = 0.000488155, No Iterations 6
GAMG:  Solving for p, Initial residual = 0.00668735, Final residual = 0.000415856, No Iterations 3
time step continuity errors : sum local = 0.000925271, global = 4.80851e-05, cumulative = 0.0130186
smoothSolver:  Solving for omega, Initial residual = 0.000781239, Final residual = 5.30835e-05, No Iterations 5
smoothSolver:  Solving for k, Initial residual = 0.0111285, Final residual = 0.000858965, No Iterations 6
ExecutionTime = 0.99 s  ClockTime = 1 s

scalarTransport execute: age
smoothSolver:  Solving for age, Initial residual = 0.0105358, Final residual = 0.000971026, No Iterations 12

Time = 80

smoothSolver:  Solving for Ux, Initial residual = 0.0116237, Final residual = 0.000830355, No Iterations 6
smoothSolver:  Solving for Uy, Initial residual = 0.00622446, Final residual = 0.000480038, No Iterations 6
GAMG:  Solving for p, Initial residual = 0.00653961, Final residual = 0.000414119, No Iterations 3
time step continuity errors : sum local = 0.000920113, global = 4.45481e-05, cumulative = 0.0130631
smoothSolver:  Solving for omega, Initial residual = 0.000764071, Final residual = 5.12607e-05, No Iterations 5
smoothSolver:  Solving for k, Initial residual = 0.0108338, Final residual = 0.000833492, No Iterations 6
ExecutionTime = 1 s  ClockTime = 1 s

scalarTransport execute: age
smoothSolver:  Solving for age, Initial residual = 0.0102456, Final residual = 0.000960938, No Iterations 12

Time = 81

smoothSolver:  Solving for Ux, Initial residual = 0.0113233, Final residual = 0.000806928, No Iterations 6
smoothSolver:  Solving for Uy, Initial residual = 0.00613558, Final residual = 0.000471504, No Iterations 6
GAMG:  Solving for p, Initial residual = 0.0064164, Final residual = 0.000413814, No Iterations 3
time step continuity errors : sum local = 0.00091809, global = 4.04565e-05, cumulative = 0.0131036
smoothSolver:  Solving for omega, Initial residual = 0.000747934, Final residual = 4.94756e-05, No Iterations 5
smoothSolver:  Solving for k, Initial residual = 0.0105434, Final residual = 0.000808319, No Iterations 6
ExecutionTime = 1.02 s  ClockTime = 1 s

scalarTransport execute: age
smoothSolver:  Solving for age, Initial residual = 0.00997764, Final residual = 0.000949844, No Iterations 12

Time = 82

smoothSolver:  Solving for Ux, Initial residual = 0.0110194, Final residual = 0.000783254, No Iterations 6
smoothSolver:  Solving for Uy, Initial residual = 0.00604527, Final residual = 0.000462634, No Iterations 6
GAMG:  Solving for p, Initial residual = 0.00635549, Final residual = 0.000399501, No Iterations 3
time step continuity errors : sum local = 0.000884919, global = 3.57712e-05, cumulative = 0.0131394
smoothSolver:  Solving for omega, Initial residual = 0.000731388, Final residual = 4.77431e-05, No Iterations 5
smoothSolver:  Solving for k, Initial residual = 0.0102596, Final residual = 0.000783596, No Iterations 6
ExecutionTime = 1.03 s  ClockTime = 1 s

scalarTransport execute: age
smoothSolver:  Solving for age, Initial residual = 0.00971283, Final residual = 0.000937802, No Iterations 12

Time = 83

smoothSolver:  Solving for Ux, Initial residual = 0.0107158, Final residual = 0.000759779, No Iterations 6
smoothSolver:  Solving for Uy, Initial residual = 0.00594953, Final residual = 0.000453157, No Iterations 6
GAMG:  Solving for p, Initial residual = 0.0063581, Final residual = 0.000409292, No Iterations 3
time step continuity errors : sum local = 0.000904868, global = 3.12681e-05, cumulative = 0.0131706
smoothSolver:  Solving for omega, Initial residual = 0.000715795, Final residual = 4.60838e-05, No Iterations 5
smoothSolver:  Solving for k, Initial residual = 0.00997976, Final residual = 0.000759146, No Iterations 6
ExecutionTime = 1.04 s  ClockTime = 1 s

scalarTransport execute: age
smoothSolver:  Solving for age, Initial residual = 0.00945335, Final residual = 0.000926177, No Iterations 12

Time = 84

smoothSolver:  Solving for Ux, Initial residual = 0.0103964, Final residual = 0.000734904, No Iterations 6
smoothSolver:  Solving for Uy, Initial residual = 0.00586302, Final residual = 0.000444404, No Iterations 6
GAMG:  Solving for p, Initial residual = 0.00641486, Final residual = 0.000401918, No Iterations 3
time step continuity errors : sum local = 0.00088701, global = 2.60777e-05, cumulative = 0.0131967
smoothSolver:  Solving for omega, Initial residual = 0.000702471, Final residual = 4.45048e-05, No Iterations 5
smoothSolver:  Solving for k, Initial residual = 0.00970631, Final residual = 0.000735142, No Iterations 6
ExecutionTime = 1.05 s  ClockTime = 1 s

scalarTransport execute: age
smoothSolver:  Solving for age, Initial residual = 0.0092235, Final residual = 0.000914531, No Iterations 12

Time = 85

smoothSolver:  Solving for Ux, Initial residual = 0.0100918, Final residual = 0.000710679, No Iterations 6
smoothSolver:  Solving for Uy, Initial residual = 0.00576839, Final residual = 0.000435092, No Iterations 6
GAMG:  Solving for p, Initial residual = 0.00647711, Final residual = 0.000411588, No Iterations 3
time step continuity errors : sum local = 0.000906085, global = 2.27501e-05, cumulative = 0.0132195
smoothSolver:  Solving for omega, Initial residual = 0.000691225, Final residual = 4.30127e-05, No Iterations 5
smoothSolver:  Solving for k, Initial residual = 0.00943728, Final residual = 0.000711384, No Iterations 6
ExecutionTime = 1.07 s  ClockTime = 1 s

scalarTransport execute: age
smoothSolver:  Solving for age, Initial residual = 0.00898178, Final residual = 0.000896967, No Iterations 12

Time = 86

smoothSolver:  Solving for Ux, Initial residual = 0.00977807, Final residual = 0.000685405, No Iterations 6
smoothSolver:  Solving for Uy, Initial residual = 0.00568991, Final residual = 0.000426788, No Iterations 6
GAMG:  Solving for p, Initial residual = 0.00659384, Final residual = 0.000405307, No Iterations 3
time step continuity errors : sum local = 0.000890263, global = 1.85058e-05, cumulative = 0.013238
smoothSolver:  Solving for omega, Initial residual = 0.000683078, Final residual = 6.80687e-05, No Iterations 4
smoothSolver:  Solving for k, Initial residual = 0.00917665, Final residual = 0.000688111, No Iterations 6
ExecutionTime = 1.08 s  ClockTime = 1 s

scalarTransport execute: age
smoothSolver:  Solving for age, Initial residual = 0.00881805, Final residual = 0.000780351, No Iterations 13

Time = 87

smoothSolver:  Solving for Ux, Initial residual = 0.00947111, Final residual = 0.000660623, No Iterations 6
smoothSolver:  Solving for Uy, Initial residual = 0.00561772, Final residual = 0.000418567, No Iterations 6
GAMG:  Solving for p, Initial residual = 0.00665976, Final residual = 0.000418093, No Iterations 3
time step continuity errors : sum local = 0.000915079, global = 1.64058e-05, cumulative = 0.0132544
smoothSolver:  Solving for omega, Initial residual = 0.000685334, Final residual = 6.66546e-05, No Iterations 4
smoothSolver:  Solving for k, Initial residual = 0.0089203, Final residual = 0.000665108, No Iterations 6
ExecutionTime = 1.09 s  ClockTime = 1 s

scalarTransport execute: age
smoothSolver:  Solving for age, Initial residual = 0.00852564, Final residual = 0.000756366, No Iterations 13

Time = 88

smoothSolver:  Solving for Ux, Initial residual = 0.00914488, Final residual = 0.000635066, No Iterations 6
smoothSolver:  Solving for Uy, Initial residual = 0.00556459, Final residual = 0.000411528, No Iterations 6
GAMG:  Solving for p, Initial residual = 0.0066624, Final residual = 0.000421459, No Iterations 3
time step continuity errors : sum local = 0.000918907, global = 1.22611e-05, cumulative = 0.0132666
smoothSolver:  Solving for omega, Initial residual = 0.000685705, Final residual = 6.51787e-05, No Iterations 4
smoothSolver:  Solving for k, Initial residual = 0.00867043, Final residual = 0.000642484, No Iterations 6
ExecutionTime = 1.1 s  ClockTime = 1 s

scalarTransport execute: age
smoothSolver:  Solving for age, Initial residual = 0.00826371, Final residual = 0.00073283, No Iterations 13

Time = 89

smoothSolver:  Solving for Ux, Initial residual = 0.00882276, Final residual = 0.000609671, No Iterations 6
smoothSolver:  Solving for Uy, Initial residual = 0.00551555, Final residual = 0.000405204, No Iterations 6
GAMG:  Solving for p, Initial residual = 0.00659272, Final residual = 0.000420739, No Iterations 3
time step continuity errors : sum local = 0.000913089, global = 8.82036e-06, cumulative = 0.0132755
smoothSolver:  Solving for omega, Initial residual = 0.000685432, Final residual = 6.35537e-05, No Iterations 4
smoothSolver:  Solving for k, Initial residual = 0.00842658, Final residual = 0.000620162, No Iterations 6
ExecutionTime = 1.12 s  ClockTime = 1 s

scalarTransport execute: age
smoothSolver:  Solving for age, Initial residual = 0.00802166, Final residual = 0.000709561, No Iterations 13

Time = 90

smoothSolver:  Solving for Ux, Initial residual = 0.00849191, Final residual = 0.000584557, No Iterations 6
smoothSolver:  Solving for Uy, Initial residual = 0.00547976, Final residual = 0.000399888, No Iterations 6
GAMG:  Solving for p, Initial residual = 0.00655033, Final residual = 0.000417842, No Iterations 3
time step continuity errors : sum local = 0.000902549, global = 5.21834e-06, cumulative = 0.0132807
smoothSolver:  Solving for omega, Initial residual = 0.000686362, Final residual = 6.1909e-05, No Iterations 4
smoothSolver:  Solving for k, Initial residual = 0.00818793, Final residual = 0.000598138, No Iterations 6
ExecutionTime = 1.13 s  ClockTime = 1 s

scalarTransport execute: age
smoothSolver:  Solving for age, Initial residual = 0.00777438, Final residual = 0.000689545, No Iterations 13

Time = 91

smoothSolver:  Solving for Ux, Initial residual = 0.00815864, Final residual = 0.000559147, No Iterations 6
smoothSolver:  Solving for Uy, Initial residual = 0.00545832, Final residual = 0.000395173, No Iterations 6
GAMG:  Solving for p, Initial residual = 0.00650195, Final residual = 0.000413957, No Iterations 3
time step continuity errors : sum local = 0.000889907, global = 1.64429e-06, cumulative = 0.0132823
smoothSolver:  Solving for omega, Initial residual = 0.000686641, Final residual = 6.02594e-05, No Iterations 4
smoothSolver:  Solving for k, Initial residual = 0.00795392, Final residual = 0.000576395, No Iterations 6
ExecutionTime = 1.14 s  ClockTime = 1 s

scalarTransport execute: age
smoothSolver:  Solving for age, Initial residual = 0.00756335, Final residual = 0.000668575, No Iterations 13

Time = 92

smoothSolver:  Solving for Ux, Initial residual = 0.00781835, Final residual = 0.000534133, No Iterations 6
smoothSolver:  Solving for Uy, Initial residual = 0.00544069, Final residual = 0.000390718, No Iterations 6
GAMG:  Solving for p, Initial residual = 0.00643986, Final residual = 0.000408189, No Iterations 3
time step continuity errors : sum local = 0.000873004, global = -1.24512e-06, cumulative = 0.0132811
smoothSolver:  Solving for omega, Initial residual = 0.000686485, Final residual = 5.85469e-05, No Iterations 4
smoothSolver:  Solving for k, Initial residual = 0.00772385, Final residual = 0.000554961, No Iterations 6
ExecutionTime = 1.15 s  ClockTime = 1 s

scalarTransport execute: age
smoothSolver:  Solving for age, Initial residual = 0.00736082, Final residual = 0.000648058, No Iterations 13

Time = 93

smoothSolver:  Solving for Ux, Initial residual = 0.00748294, Final residual = 0.000509112, No Iterations 6
smoothSolver:  Solving for Uy, Initial residual = 0.00542988, Final residual = 0.000386374, No Iterations 6
GAMG:  Solving for p, Initial residual = 0.00638444, Final residual = 0.000401228, No Iterations 3
time step continuity errors : sum local = 0.000853439, global = -3.43215e-06, cumulative = 0.0132777
smoothSolver:  Solving for omega, Initial residual = 0.000684953, Final residual = 5.68262e-05, No Iterations 4
smoothSolver:  Solving for k, Initial residual = 0.00749825, Final residual = 0.000533891, No Iterations 6
ExecutionTime = 1.17 s  ClockTime = 1 s

scalarTransport execute: age
smoothSolver:  Solving for age, Initial residual = 0.00717881, Final residual = 0.000715929, No Iterations 12

Time = 94

smoothSolver:  Solving for Ux, Initial residual = 0.00715206, Final residual = 0.000484352, No Iterations 6
smoothSolver:  Solving for Uy, Initial residual = 0.00541864, Final residual = 0.000382002, No Iterations 6
GAMG:  Solving for p, Initial residual = 0.00632387, Final residual = 0.000393135, No Iterations 3
time step continuity errors : sum local = 0.000830744, global = -4.84585e-06, cumulative = 0.0132728
smoothSolver:  Solving for omega, Initial residual = 0.000684271, Final residual = 5.51718e-05, No Iterations 4
smoothSolver:  Solving for k, Initial residual = 0.00727842, Final residual = 0.000513179, No Iterations 6
ExecutionTime = 1.18 s  ClockTime = 1 s

scalarTransport execute: age
smoothSolver:  Solving for age, Initial residual = 0.00698262, Final residual = 0.000697888, No Iterations 12

Time = 95

smoothSolver:  Solving for Ux, Initial residual = 0.00682724, Final residual = 0.000460001, No Iterations 6
smoothSolver:  Solving for Uy, Initial residual = 0.00540215, Final residual = 0.000377353, No Iterations 6
GAMG:  Solving for p, Initial residual = 0.00626693, Final residual = 0.000383687, No Iterations 3
time step continuity errors : sum local = 0.000805872, global = -5.48424e-06, cumulative = 0.0132673
smoothSolver:  Solving for omega, Initial residual = 0.000681082, Final residual = 5.35334e-05, No Iterations 4
smoothSolver:  Solving for k, Initial residual = 0.00706072, Final residual = 0.000492813, No Iterations 6
ExecutionTime = 1.19 s  ClockTime = 1 s

scalarTransport execute: age
smoothSolver:  Solving for age, Initial residual = 0.006809, Final residual = 0.000678685, No Iterations 12

Time = 96

smoothSolver:  Solving for Ux, Initial residual = 0.00650763, Final residual = 0.000435855, No Iterations 6
[...]

Time = 603

smoothSolver:  Solving for Ux, Initial residual = 7.17269e-07, Final residual = 6.33111e-08, No Iterations 5
smoothSolver:  Solving for Uy, Initial residual = 6.12806e-07, Final residual = 6.02122e-08, No Iterations 5
GAMG:  Solving for p, Initial residual = 1.42213e-06, Final residual = 7.32626e-08, No Iterations 3
time step continuity errors : sum local = 1.31013e-07, global = 1.05965e-08, cumulative = 0.0192854
smoothSolver:  Solving for omega, Initial residual = 6.42771e-08, Final residual = 9.97712e-09, No Iterations 3
smoothSolver:  Solving for k, Initial residual = 1.30441e-07, Final residual = 9.93206e-09, No Iterations 5
ExecutionTime = 7.13 s  ClockTime = 7 s

scalarTransport execute: age
smoothSolver:  Solving for age, Initial residual = 0.000319186, Final residual = 2.96468e-05, No Iterations 15

Time = 604

smoothSolver:  Solving for Ux, Initial residual = 7.05151e-07, Final residual = 6.17678e-08, No Iterations 5
smoothSolver:  Solving for Uy, Initial residual = 6.01618e-07, Final residual = 5.93548e-08, No Iterations 5
GAMG:  Solving for p, Initial residual = 1.33088e-06, Final residual = 1.18255e-07, No Iterations 2
time step continuity errors : sum local = 2.11471e-07, global = 1.44867e-08, cumulative = 0.0192854
smoothSolver:  Solving for omega, Initial residual = 6.37848e-08, Final residual = 5.95767e-09, No Iterations 4
smoothSolver:  Solving for k, Initial residual = 1.28579e-07, Final residual = 9.7652e-09, No Iterations 5
ExecutionTime = 7.14 s  ClockTime = 7 s

scalarTransport execute: age
smoothSolver:  Solving for age, Initial residual = 0.000318565, Final residual = 2.95901e-05, No Iterations 15

Time = 605

smoothSolver:  Solving for Ux, Initial residual = 6.97297e-07, Final residual = 6.15415e-08, No Iterations 5
smoothSolver:  Solving for Uy, Initial residual = 5.95832e-07, Final residual = 5.85446e-08, No Iterations 5
GAMG:  Solving for p, Initial residual = 1.38261e-06, Final residual = 7.12306e-08, No Iterations 3
time step continuity errors : sum local = 1.2738e-07, global = 1.03031e-08, cumulative = 0.0192854
smoothSolver:  Solving for omega, Initial residual = 6.32918e-08, Final residual = 9.85919e-09, No Iterations 3
smoothSolver:  Solving for k, Initial residual = 1.26958e-07, Final residual = 9.66654e-09, No Iterations 5
ExecutionTime = 7.15 s  ClockTime = 7 s

scalarTransport execute: age
smoothSolver:  Solving for age, Initial residual = 0.00031794, Final residual = 2.95322e-05, No Iterations 15

Time = 606

smoothSolver:  Solving for Ux, Initial residual = 6.8554e-07, Final residual = 6.00432e-08, No Iterations 5
smoothSolver:  Solving for Uy, Initial residual = 5.84916e-07, Final residual = 5.7706e-08, No Iterations 5
GAMG:  Solving for p, Initial residual = 1.29384e-06, Final residual = 1.15002e-07, No Iterations 2
time step continuity errors : sum local = 2.05656e-07, global = 1.4083e-08, cumulative = 0.0192854
smoothSolver:  Solving for omega, Initial residual = 6.26096e-08, Final residual = 9.85207e-09, No Iterations 3
smoothSolver:  Solving for k, Initial residual = 1.25289e-07, Final residual = 9.51203e-09, No Iterations 5
ExecutionTime = 7.16 s  ClockTime = 7 s

scalarTransport execute: age
smoothSolver:  Solving for age, Initial residual = 0.000317324, Final residual = 2.94759e-05, No Iterations 15

Time = 607

smoothSolver:  Solving for Ux, Initial residual = 6.77761e-07, Final residual = 5.98069e-08, No Iterations 5
smoothSolver:  Solving for Uy, Initial residual = 5.79276e-07, Final residual = 5.6917e-08, No Iterations 5
GAMG:  Solving for p, Initial residual = 1.34459e-06, Final residual = 6.92577e-08, No Iterations 3
time step continuity errors : sum local = 1.23852e-07, global = 1.00155e-08, cumulative = 0.0192854
smoothSolver:  Solving for omega, Initial residual = 6.31133e-08, Final residual = 9.8942e-09, No Iterations 3
smoothSolver:  Solving for k, Initial residual = 1.23692e-07, Final residual = 9.41609e-09, No Iterations 5
ExecutionTime = 7.17 s  ClockTime = 7 s

scalarTransport execute: age
smoothSolver:  Solving for age, Initial residual = 0.000316704, Final residual = 2.94184e-05, No Iterations 15

Time = 608

smoothSolver:  Solving for Ux, Initial residual = 6.66358e-07, Final residual = 5.83533e-08, No Iterations 5
smoothSolver:  Solving for Uy, Initial residual = 5.68627e-07, Final residual = 5.60969e-08, No Iterations 5
GAMG:  Solving for p, Initial residual = 1.25786e-06, Final residual = 1.11827e-07, No Iterations 2
time step continuity errors : sum local = 1.99978e-07, global = 1.36894e-08, cumulative = 0.0192854
smoothSolver:  Solving for omega, Initial residual = 6.20369e-08, Final residual = 9.8188e-09, No Iterations 3
smoothSolver:  Solving for k, Initial residual = 1.21938e-07, Final residual = 9.25703e-09, No Iterations 5
ExecutionTime = 7.19 s  ClockTime = 7 s

scalarTransport execute: age
smoothSolver:  Solving for age, Initial residual = 0.000316093, Final residual = 2.93625e-05, No Iterations 15

Time = 609

smoothSolver:  Solving for Ux, Initial residual = 6.58806e-07, Final residual = 5.81249e-08, No Iterations 5
smoothSolver:  Solving for Uy, Initial residual = 5.63113e-07, Final residual = 5.53269e-08, No Iterations 5
GAMG:  Solving for p, Initial residual = 1.30715e-06, Final residual = 6.73373e-08, No Iterations 3
time step continuity errors : sum local = 1.20418e-07, global = 9.73581e-09, cumulative = 0.0192854
smoothSolver:  Solving for omega, Initial residual = 6.2242e-08, Final residual = 9.80897e-09, No Iterations 3
smoothSolver:  Solving for k, Initial residual = 1.203e-07, Final residual = 9.15726e-09, No Iterations 5
ExecutionTime = 7.2 s  ClockTime = 7 s

scalarTransport execute: age
smoothSolver:  Solving for age, Initial residual = 0.000315478, Final residual = 2.93054e-05, No Iterations 15

Time = 610

smoothSolver:  Solving for Ux, Initial residual = 6.47716e-07, Final residual = 5.6713e-08, No Iterations 5
smoothSolver:  Solving for Uy, Initial residual = 5.52717e-07, Final residual = 5.45253e-08, No Iterations 5
GAMG:  Solving for p, Initial residual = 1.2228e-06, Final residual = 1.08756e-07, No Iterations 2
time step continuity errors : sum local = 1.94486e-07, global = 1.33109e-08, cumulative = 0.0192854
smoothSolver:  Solving for omega, Initial residual = 6.09968e-08, Final residual = 9.69695e-09, No Iterations 3
smoothSolver:  Solving for k, Initial residual = 1.1853e-07, Final residual = 8.9975e-09, No Iterations 5
ExecutionTime = 7.21 s  ClockTime = 7 s

scalarTransport execute: age
smoothSolver:  Solving for age, Initial residual = 0.000314871, Final residual = 2.92498e-05, No Iterations 15

Time = 611

smoothSolver:  Solving for Ux, Initial residual = 6.4036e-07, Final residual = 5.64908e-08, No Iterations 5
smoothSolver:  Solving for Uy, Initial residual = 5.47352e-07, Final residual = 5.37757e-08, No Iterations 5
GAMG:  Solving for p, Initial residual = 1.27084e-06, Final residual = 6.54698e-08, No Iterations 3
time step continuity errors : sum local = 1.17078e-07, global = 9.46223e-09, cumulative = 0.0192855
smoothSolver:  Solving for omega, Initial residual = 6.10481e-08, Final residual = 9.65678e-09, No Iterations 3
smoothSolver:  Solving for k, Initial residual = 1.16886e-07, Final residual = 8.8963e-09, No Iterations 5
ExecutionTime = 7.22 s  ClockTime = 7 s

scalarTransport execute: age
smoothSolver:  Solving for age, Initial residual = 0.00031426, Final residual = 2.91931e-05, No Iterations 15

Time = 612

smoothSolver:  Solving for Ux, Initial residual = 6.29565e-07, Final residual = 5.51188e-08, No Iterations 5
smoothSolver:  Solving for Uy, Initial residual = 5.37226e-07, Final residual = 5.29939e-08, No Iterations 5
GAMG:  Solving for p, Initial residual = 1.1888e-06, Final residual = 1.05752e-07, No Iterations 2
time step continuity errors : sum local = 1.89113e-07, global = 1.29456e-08, cumulative = 0.0192855
smoothSolver:  Solving for omega, Initial residual = 5.97249e-08, Final residual = 9.52396e-09, No Iterations 3
smoothSolver:  Solving for k, Initial residual = 1.15124e-07, Final residual = 8.73744e-09, No Iterations 5
ExecutionTime = 7.23 s  ClockTime = 7 s

scalarTransport execute: age
smoothSolver:  Solving for age, Initial residual = 0.000313658, Final residual = 2.91379e-05, No Iterations 15

Time = 613

smoothSolver:  Solving for Ux, Initial residual = 6.22402e-07, Final residual = 5.49031e-08, No Iterations 5
smoothSolver:  Solving for Uy, Initial residual = 5.32004e-07, Final residual = 5.22641e-08, No Iterations 5
GAMG:  Solving for p, Initial residual = 1.23555e-06, Final residual = 6.36461e-08, No Iterations 3
time step continuity errors : sum local = 1.13817e-07, global = 9.19584e-09, cumulative = 0.0192855
smoothSolver:  Solving for omega, Initial residual = 5.96901e-08, Final residual = 9.46585e-09, No Iterations 3
smoothSolver:  Solving for k, Initial residual = 1.13492e-07, Final residual = 8.63623e-09, No Iterations 5
ExecutionTime = 7.24 s  ClockTime = 7 s

scalarTransport execute: age
smoothSolver:  Solving for age, Initial residual = 0.000313052, Final residual = 2.90817e-05, No Iterations 15

Time = 614

smoothSolver:  Solving for Ux, Initial residual = 6.11897e-07, Final residual = 5.35707e-08, No Iterations 5
smoothSolver:  Solving for Uy, Initial residual = 5.22142e-07, Final residual = 5.1502e-08, No Iterations 5
GAMG:  Solving for p, Initial residual = 1.15575e-06, Final residual = 1.0281e-07, No Iterations 2
time step continuity errors : sum local = 1.83853e-07, global = 1.25914e-08, cumulative = 0.0192855
smoothSolver:  Solving for omega, Initial residual = 5.83357e-08, Final residual = 9.3217e-09, No Iterations 3
smoothSolver:  Solving for k, Initial residual = 1.11753e-07, Final residual = 8.47956e-09, No Iterations 5
ExecutionTime = 7.26 s  ClockTime = 7 s

scalarTransport execute: age
smoothSolver:  Solving for age, Initial residual = 0.000312454, Final residual = 2.90269e-05, No Iterations 15

Time = 615

smoothSolver:  Solving for Ux, Initial residual = 6.04929e-07, Final residual = 5.3362e-08, No Iterations 5
smoothSolver:  Solving for Uy, Initial residual = 5.17051e-07, Final residual = 5.07916e-08, No Iterations 5
GAMG:  Solving for p, Initial residual = 1.20117e-06, Final residual = 6.18644e-08, No Iterations 3
time step continuity errors : sum local = 1.10631e-07, global = 8.93708e-09, cumulative = 0.0192855
smoothSolver:  Solving for omega, Initial residual = 5.82515e-08, Final residual = 9.25324e-09, No Iterations 3
smoothSolver:  Solving for k, Initial residual = 1.10145e-07, Final residual = 8.37962e-09, No Iterations 5
ExecutionTime = 7.27 s  ClockTime = 7 s

scalarTransport execute: age
smoothSolver:  Solving for age, Initial residual = 0.000311853, Final residual = 2.89711e-05, No Iterations 15

Time = 616

smoothSolver:  Solving for Ux, Initial residual = 5.94713e-07, Final residual = 5.20681e-08, No Iterations 5
smoothSolver:  Solving for Uy, Initial residual = 5.07455e-07, Final residual = 5.005e-08, No Iterations 5
GAMG:  Solving for p, Initial residual = 1.12356e-06, Final residual = 9.99344e-08, No Iterations 2
time step continuity errors : sum local = 1.78711e-07, global = 1.22464e-08, cumulative = 0.0192855
smoothSolver:  Solving for omega, Initial residual = 5.68905e-08, Final residual = 9.10343e-09, No Iterations 3
smoothSolver:  Solving for k, Initial residual = 1.08441e-07, Final residual = 8.22643e-09, No Iterations 5
ExecutionTime = 7.28 s  ClockTime = 7 s

scalarTransport execute: age
smoothSolver:  Solving for age, Initial residual = 0.00031126, Final residual = 2.89168e-05, No Iterations 15

Time = 617

smoothSolver:  Solving for Ux, Initial residual = 5.87949e-07, Final residual = 5.18668e-08, No Iterations 5
smoothSolver:  Solving for Uy, Initial residual = 5.02503e-07, Final residual = 4.93596e-08, No Iterations 5
GAMG:  Solving for p, Initial residual = 1.16765e-06, Final residual = 6.01266e-08, No Iterations 3
time step continuity errors : sum local = 1.07523e-07, global = 8.68603e-09, cumulative = 0.0192855
smoothSolver:  Solving for omega, Initial residual = 5.67765e-08, Final residual = 9.02915e-09, No Iterations 3
smoothSolver:  Solving for k, Initial residual = 1.06871e-07, Final residual = 8.12895e-09, No Iterations 5
ExecutionTime = 7.29 s  ClockTime = 7 s

scalarTransport execute: age
smoothSolver:  Solving for age, Initial residual = 0.000310664, Final residual = 2.88615e-05, No Iterations 15

Time = 618

smoothSolver:  Solving for Ux, Initial residual = 5.78025e-07, Final residual = 5.06099e-08, No Iterations 5
smoothSolver:  Solving for Uy, Initial residual = 4.93182e-07, Final residual = 4.86404e-08, No Iterations 5
GAMG:  Solving for p, Initial residual = 1.09224e-06, Final residual = 9.7135e-08, No Iterations 2
time step continuity errors : sum local = 1.73705e-07, global = 1.19092e-08, cumulative = 0.0192855
smoothSolver:  Solving for omega, Initial residual = 5.54244e-08, Final residual = 8.87731e-09, No Iterations 3
smoothSolver:  Solving for k, Initial residual = 1.05216e-07, Final residual = 7.98033e-09, No Iterations 5
ExecutionTime = 7.3 s  ClockTime = 7 s

scalarTransport execute: age
smoothSolver:  Solving for age, Initial residual = 0.000310075, Final residual = 2.88076e-05, No Iterations 15

Time = 619

smoothSolver:  Solving for Ux, Initial residual = 5.71476e-07, Final residual = 5.04161e-08, No Iterations 5
smoothSolver:  Solving for Uy, Initial residual = 4.88385e-07, Final residual = 4.7971e-08, No Iterations 5
GAMG:  Solving for p, Initial residual = 1.13504e-06, Final residual = 5.8438e-08, No Iterations 3
time step continuity errors : sum local = 1.04504e-07, global = 8.44305e-09, cumulative = 0.0192855
smoothSolver:  Solving for omega, Initial residual = 5.52929e-08, Final residual = 8.80008e-09, No Iterations 3
smoothSolver:  Solving for k, Initial residual = 1.03695e-07, Final residual = 7.8863e-09, No Iterations 5
ExecutionTime = 7.31 s  ClockTime = 7 s

scalarTransport execute: age
smoothSolver:  Solving for age, Initial residual = 0.000309483, Final residual = 2.87528e-05, No Iterations 15

Time = 620

smoothSolver:  Solving for Ux, Initial residual = 5.61845e-07, Final residual = 4.91948e-08, No Iterations 5
smoothSolver:  Solving for Uy, Initial residual = 4.79355e-07, Final residual = 4.72761e-08, No Iterations 5
GAMG:  Solving for p, Initial residual = 1.06181e-06, Final residual = 9.44224e-08, No Iterations 2
time step continuity errors : sum local = 1.68854e-07, global = 1.15801e-08, cumulative = 0.0192856
smoothSolver:  Solving for omega, Initial residual = 5.39599e-08, Final residual = 8.64852e-09, No Iterations 3
smoothSolver:  Solving for k, Initial residual = 1.02098e-07, Final residual = 7.74296e-09, No Iterations 5
ExecutionTime = 7.32 s  ClockTime = 7 s

scalarTransport execute: age
smoothSolver:  Solving for age, Initial residual = 0.000308898, Final residual = 2.86993e-05, No Iterations 15

Time = 621

smoothSolver:  Solving for Ux, Initial residual = 5.55512e-07, Final residual = 4.90081e-08, No Iterations 5
smoothSolver:  Solving for Uy, Initial residual = 4.7473e-07, Final residual = 4.66286e-08, No Iterations 5
GAMG:  Solving for p, Initial residual = 1.1034e-06, Final residual = 5.6803e-08, No Iterations 3
time step continuity errors : sum local = 1.0158e-07, global = 8.2083e-09, cumulative = 0.0192856
smoothSolver:  Solving for omega, Initial residual = 5.38186e-08, Final residual = 8.5703e-09, No Iterations 3
smoothSolver:  Solving for k, Initial residual = 1.00637e-07, Final residual = 7.65299e-09, No Iterations 5
ExecutionTime = 7.34 s  ClockTime = 7 s

scalarTransport execute: age
smoothSolver:  Solving for age, Initial residual = 0.000308311, Final residual = 2.86448e-05, No Iterations 15

Time = 622

smoothSolver:  Solving for Ux, Initial residual = 5.46169e-07, Final residual = 4.78205e-08, No Iterations 5
smoothSolver:  Solving for Uy, Initial residual = 4.65999e-07, Final residual = 4.59584e-08, No Iterations 5
GAMG:  Solving for p, Initial residual = 1.03232e-06, Final residual = 9.18024e-08, No Iterations 2
time step continuity errors : sum local = 1.64169e-07, global = 1.126e-08, cumulative = 0.0192856
smoothSolver:  Solving for omega, Initial residual = 5.2512e-08, Final residual = 8.42048e-09, No Iterations 3
smoothSolver:  Solving for k, Initial residual = 9.91049e-08, Final residual = 7.51534e-09, No Iterations 5
ExecutionTime = 7.35 s  ClockTime = 7 s

scalarTransport execute: age
smoothSolver:  Solving for age, Initial residual = 0.000307731, Final residual = 2.85917e-05, No Iterations 15

Time = 623

smoothSolver:  Solving for Ux, Initial residual = 5.40044e-07, Final residual = 4.76404e-08, No Iterations 5
smoothSolver:  Solving for Uy, Initial residual = 4.61552e-07, Final residual = 4.53328e-08, No Iterations 5
GAMG:  Solving for p, Initial residual = 1.07279e-06, Final residual = 5.52235e-08, No Iterations 3
time step continuity errors : sum local = 9.87555e-08, global = 7.98144e-09, cumulative = 0.0192856
smoothSolver:  Solving for omega, Initial residual = 5.23659e-08, Final residual = 8.34259e-09, No Iterations 3
smoothSolver:  Solving for k, Initial residual = 9.77074e-08, Final residual = 7.42969e-09, No Iterations 5
ExecutionTime = 7.36 s  ClockTime = 7 s

scalarTransport execute: age
smoothSolver:  Solving for age, Initial residual = 0.000307148, Final residual = 2.85377e-05, No Iterations 15

Time = 624

smoothSolver:  Solving for Ux, Initial residual = 5.30975e-07, Final residual = 4.64848e-08, No Iterations 5
smoothSolver:  Solving for Uy, Initial residual = 4.53109e-07, Final residual = 4.46863e-08, No Iterations 5
GAMG:  Solving for p, Initial residual = 1.00376e-06, Final residual = 8.92732e-08, No Iterations 2
time step continuity errors : sum local = 1.59646e-07, global = 1.09492e-08, cumulative = 0.0192856
smoothSolver:  Solving for omega, Initial residual = 5.10909e-08, Final residual = 8.19551e-09, No Iterations 3
smoothSolver:  Solving for k, Initial residual = 9.62417e-08, Final residual = 7.29777e-09, No Iterations 5
ExecutionTime = 7.37 s  ClockTime = 8 s

scalarTransport execute: age
smoothSolver:  Solving for age, Initial residual = 0.000306572, Final residual = 2.8485e-05, No Iterations 15

Time = 625

smoothSolver:  Solving for Ux, Initial residual = 5.25042e-07, Final residual = 4.63104e-08, No Iterations 5
smoothSolver:  Solving for Uy, Initial residual = 4.48828e-07, Final residual = 4.40813e-08, No Iterations 5
GAMG:  Solving for p, Initial residual = 1.04316e-06, Final residual = 5.36979e-08, No Iterations 3
time step continuity errors : sum local = 9.60274e-08, global = 7.76165e-09, cumulative = 0.0192856
smoothSolver:  Solving for omega, Initial residual = 5.09428e-08, Final residual = 8.11882e-09, No Iterations 3
smoothSolver:  Solving for k, Initial residual = 9.49073e-08, Final residual = 7.21641e-09, No Iterations 5
ExecutionTime = 7.37 s  ClockTime = 8 s

scalarTransport execute: age
smoothSolver:  Solving for age, Initial residual = 0.000305993, Final residual = 2.84315e-05, No Iterations 15

Time = 626

smoothSolver:  Solving for Ux, Initial residual = 5.16229e-07, Final residual = 4.51857e-08, No Iterations 5
smoothSolver:  Solving for Uy, Initial residual = 4.40649e-07, Final residual = 4.34557e-08, No Iterations 5
GAMG:  Solving for p, Initial residual = 9.76074e-07, Final residual = 8.68263e-08, No Iterations 2
time step continuity errors : sum local = 1.55271e-07, global = 1.06474e-08, cumulative = 0.0192856
smoothSolver:  Solving for omega, Initial residual = 4.97023e-08, Final residual = 7.97509e-09, No Iterations 3
smoothSolver:  Solving for k, Initial residual = 9.35056e-08, Final residual = 7.08996e-09, No Iterations 5
ExecutionTime = 7.38 s  ClockTime = 8 s


SIMPLE solution converged in 626 iterations

scalarTransport execute: age
smoothSolver:  Solving for age, Initial residual = 0.000305422, Final residual = 2.83793e-05, No Iterations 15

End

