/*---------------------------------------------------------------------------*\
| =========                 |                                                 |
| \\      /  F ield         | OpenFOAM: The Open Source CFD Toolbox           |
|  \\    /   O peration     | Version:  v2012                                 |
|   \\  /    A nd           | Website:  www.openfoam.com                      |
|    \\/     M anipulation  |                                                 |
\*---------------------------------------------------------------------------*/
Build  : _7bdb509494-20201222 OPENFOAM=2012
Arch   : "LSB;label=32;scalar=64"
Exec   : simpleFoam
Date   : Feb 23 2023
Time   : 02:28:12
Host   : johnsDesktop
PID    : 18916
I/O    : uncollated
Case   : /home/john/of_runs/cases/0_54_445_6
nProcs : 1
trapFpe: Floating point exception trapping enabled (FOAM_SIGFPE).
fileModificationChecking : Monitoring run-time modified files using timeStampMaster (fileModificationSkew 5, maxFileModificationPolls 20)
allowSystemOperations : Allowing user-supplied system call operations

// * * * * * * * * * * * * * * * * * * * * * * * * * * * * * * * * * * * * * //
Create time

Create mesh for time = 0


SIMPLE: convergence criteria
    field p	 tolerance 1e-06
    field U	 tolerance 1e-06
    field "(k|epsilon|omega|f|v2|age)"	 tolerance 1e-05

Reading field p

Reading field U

Reading/calculating face flux field phi

Selecting incompressible transport model Newtonian
Selecting turbulence model type RAS
Selecting RAS turbulence model kOmegaSST
Selecting patchDistMethod meshWave
RAS
{
    RASModel        kOmegaSST;
    turbulence      on;
    printCoeffs     on;
    alphaK1         0.85;
    alphaK2         1;
    alphaOmega1     0.5;
    alphaOmega2     0.856;
    gamma1          0.555556;
    gamma2          0.44;
    beta1           0.075;
    beta2           0.0828;
    betaStar        0.09;
    a1              0.31;
    b1              1;
    c1              10;
    F3              false;
    decayControl    false;
    kInf            0;
    omegaInf        0;
}

No MRF models present

No finite volume options present

Starting time loop

Selecting finite volume options type scalarSemiImplicitSource
    Source: unitySource
    - selecting all cells
    - selected 6054 cell(s) with volume 0.03173
Time = 1

smoothSolver:  Solving for Ux, Initial residual = 0, Final residual = 0, No Iterations 0
smoothSolver:  Solving for Uy, Initial residual = 1, Final residual = 0.0987978, No Iterations 1
GAMG:  Solving for p, Initial residual = 1, Final residual = 0.047752, No Iterations 8
time step continuity errors : sum local = 0.0030099, global = -0.000661255, cumulative = -0.000661255
smoothSolver:  Solving for omega, Initial residual = 0.106109, Final residual = 0.00525494, No Iterations 3
smoothSolver:  Solving for k, Initial residual = 1, Final residual = 0.0647966, No Iterations 3
ExecutionTime = 0.06 s  ClockTime = 0 s

scalarTransport execute: age
smoothSolver:  Solving for age, Initial residual = 1, Final residual = 0.091838, No Iterations 5

Time = 2

smoothSolver:  Solving for Ux, Initial residual = 0.462981, Final residual = 0.0453637, No Iterations 5
smoothSolver:  Solving for Uy, Initial residual = 0.229525, Final residual = 0.0171501, No Iterations 5
GAMG:  Solving for p, Initial residual = 0.0663843, Final residual = 0.0054261, No Iterations 3
time step continuity errors : sum local = 0.0320891, global = 0.00426853, cumulative = 0.00360728
smoothSolver:  Solving for omega, Initial residual = 0.0588139, Final residual = 0.00394385, No Iterations 3
smoothSolver:  Solving for k, Initial residual = 0.462455, Final residual = 0.0290838, No Iterations 4
ExecutionTime = 0.07 s  ClockTime = 0 s

scalarTransport execute: age
smoothSolver:  Solving for age, Initial residual = 0.580892, Final residual = 0.0511682, No Iterations 5

Time = 3

smoothSolver:  Solving for Ux, Initial residual = 0.201857, Final residual = 0.015528, No Iterations 5
smoothSolver:  Solving for Uy, Initial residual = 0.0942521, Final residual = 0.00900542, No Iterations 4
GAMG:  Solving for p, Initial residual = 0.0580364, Final residual = 0.0030821, No Iterations 3
time step continuity errors : sum local = 0.012479, global = 0.00378197, cumulative = 0.00738925
smoothSolver:  Solving for omega, Initial residual = 0.0183366, Final residual = 0.0013005, No Iterations 4
smoothSolver:  Solving for k, Initial residual = 0.288006, Final residual = 0.0243314, No Iterations 4
ExecutionTime = 0.08 s  ClockTime = 0 s

scalarTransport execute: age
smoothSolver:  Solving for age, Initial residual = 0.369009, Final residual = 0.0349614, No Iterations 5

Time = 4

smoothSolver:  Solving for Ux, Initial residual = 0.103655, Final residual = 0.00979431, No Iterations 4
smoothSolver:  Solving for Uy, Initial residual = 0.0624335, Final residual = 0.00563442, No Iterations 4
GAMG:  Solving for p, Initial residual = 0.0691372, Final residual = 0.00582617, No Iterations 2
time step continuity errors : sum local = 0.0166333, global = 0.00151624, cumulative = 0.00890549
smoothSolver:  Solving for omega, Initial residual = 0.0117891, Final residual = 0.000882221, No Iterations 4
smoothSolver:  Solving for k, Initial residual = 0.208115, Final residual = 0.0206134, No Iterations 4
ExecutionTime = 0.09 s  ClockTime = 0 s

scalarTransport execute: age
smoothSolver:  Solving for age, Initial residual = 0.258277, Final residual = 0.0241315, No Iterations 5

Time = 5

smoothSolver:  Solving for Ux, Initial residual = 0.0799161, Final residual = 0.00518015, No Iterations 5
smoothSolver:  Solving for Uy, Initial residual = 0.0566474, Final residual = 0.00547047, No Iterations 4
GAMG:  Solving for p, Initial residual = 0.068462, Final residual = 0.00454237, No Iterations 2
time step continuity errors : sum local = 0.0123359, global = 0.00134196, cumulative = 0.0102475
smoothSolver:  Solving for omega, Initial residual = 0.00733308, Final residual = 0.000599356, No Iterations 4
smoothSolver:  Solving for k, Initial residual = 0.154525, Final residual = 0.0101112, No Iterations 5
ExecutionTime = 0.1 s  ClockTime = 0 s

scalarTransport execute: age
smoothSolver:  Solving for age, Initial residual = 0.190643, Final residual = 0.0184565, No Iterations 5

Time = 6

smoothSolver:  Solving for Ux, Initial residual = 0.069804, Final residual = 0.00486331, No Iterations 5
smoothSolver:  Solving for Uy, Initial residual = 0.0481306, Final residual = 0.0033686, No Iterations 5
GAMG:  Solving for p, Initial residual = 0.0580778, Final residual = 0.00400339, No Iterations 2
time step continuity errors : sum local = 0.0113378, global = 0.00103041, cumulative = 0.0112779
smoothSolver:  Solving for omega, Initial residual = 0.00553746, Final residual = 0.000433187, No Iterations 4
smoothSolver:  Solving for k, Initial residual = 0.122003, Final residual = 0.00855129, No Iterations 5
ExecutionTime = 0.11 s  ClockTime = 0 s

scalarTransport execute: age
smoothSolver:  Solving for age, Initial residual = 0.15102, Final residual = 0.0126756, No Iterations 6

Time = 7

smoothSolver:  Solving for Ux, Initial residual = 0.0663661, Final residual = 0.00490445, No Iterations 5
smoothSolver:  Solving for Uy, Initial residual = 0.0438687, Final residual = 0.00333997, No Iterations 5
GAMG:  Solving for p, Initial residual = 0.0501895, Final residual = 0.00339406, No Iterations 2
time step continuity errors : sum local = 0.00990817, global = 0.000669482, cumulative = 0.0119473
smoothSolver:  Solving for omega, Initial residual = 0.00412182, Final residual = 0.000327809, No Iterations 4
smoothSolver:  Solving for k, Initial residual = 0.0999058, Final residual = 0.00730683, No Iterations 5
ExecutionTime = 0.12 s  ClockTime = 0 s

scalarTransport execute: age
smoothSolver:  Solving for age, Initial residual = 0.123564, Final residual = 0.0107053, No Iterations 6

Time = 8

smoothSolver:  Solving for Ux, Initial residual = 0.0656191, Final residual = 0.00499547, No Iterations 5
smoothSolver:  Solving for Uy, Initial residual = 0.0426354, Final residual = 0.00340425, No Iterations 5
GAMG:  Solving for p, Initial residual = 0.0498932, Final residual = 0.00351588, No Iterations 2
time step continuity errors : sum local = 0.0105548, global = 0.000480432, cumulative = 0.0124278
smoothSolver:  Solving for omega, Initial residual = 0.00322453, Final residual = 0.000257428, No Iterations 4
smoothSolver:  Solving for k, Initial residual = 0.0839405, Final residual = 0.00629375, No Iterations 5
ExecutionTime = 0.14 s  ClockTime = 0 s

scalarTransport execute: age
smoothSolver:  Solving for age, Initial residual = 0.104834, Final residual = 0.00946553, No Iterations 6

Time = 9

smoothSolver:  Solving for Ux, Initial residual = 0.0638835, Final residual = 0.00501674, No Iterations 5
smoothSolver:  Solving for Uy, Initial residual = 0.0413925, Final residual = 0.00341125, No Iterations 5
GAMG:  Solving for p, Initial residual = 0.0510869, Final residual = 0.00370675, No Iterations 2
time step continuity errors : sum local = 0.0113533, global = 0.000243967, cumulative = 0.0126717
smoothSolver:  Solving for omega, Initial residual = 0.00275336, Final residual = 0.000210174, No Iterations 4
smoothSolver:  Solving for k, Initial residual = 0.0720956, Final residual = 0.00544996, No Iterations 5
ExecutionTime = 0.15 s  ClockTime = 0 s

scalarTransport execute: age
smoothSolver:  Solving for age, Initial residual = 0.089948, Final residual = 0.00856764, No Iterations 6

Time = 10

smoothSolver:  Solving for Ux, Initial residual = 0.0621859, Final residual = 0.00497667, No Iterations 5
smoothSolver:  Solving for Uy, Initial residual = 0.040315, Final residual = 0.00333888, No Iterations 5
GAMG:  Solving for p, Initial residual = 0.0502473, Final residual = 0.00384187, No Iterations 2
time step continuity errors : sum local = 0.0119549, global = 9.02028e-05, cumulative = 0.0127619
smoothSolver:  Solving for omega, Initial residual = 0.00239547, Final residual = 0.000177126, No Iterations 4
smoothSolver:  Solving for k, Initial residual = 0.0629632, Final residual = 0.00473905, No Iterations 5
ExecutionTime = 0.16 s  ClockTime = 0 s

scalarTransport execute: age
smoothSolver:  Solving for age, Initial residual = 0.0807354, Final residual = 0.00681603, No Iterations 7

Time = 11

smoothSolver:  Solving for Ux, Initial residual = 0.0605351, Final residual = 0.00487939, No Iterations 5
smoothSolver:  Solving for Uy, Initial residual = 0.0395479, Final residual = 0.00323221, No Iterations 5
GAMG:  Solving for p, Initial residual = 0.0504797, Final residual = 0.00392173, No Iterations 2
time step continuity errors : sum local = 0.0124234, global = 1.47693e-05, cumulative = 0.0127767
smoothSolver:  Solving for omega, Initial residual = 0.00217834, Final residual = 0.000151962, No Iterations 4
smoothSolver:  Solving for k, Initial residual = 0.0559954, Final residual = 0.00413752, No Iterations 5
ExecutionTime = 0.17 s  ClockTime = 0 s

scalarTransport execute: age
smoothSolver:  Solving for age, Initial residual = 0.0746346, Final residual = 0.00668096, No Iterations 7

Time = 12

smoothSolver:  Solving for Ux, Initial residual = 0.0591751, Final residual = 0.00475928, No Iterations 5
smoothSolver:  Solving for Uy, Initial residual = 0.0390776, Final residual = 0.00310943, No Iterations 5
GAMG:  Solving for p, Initial residual = 0.050752, Final residual = 0.00392072, No Iterations 2
time step continuity errors : sum local = 0.0126707, global = 2.32421e-05, cumulative = 0.0128
smoothSolver:  Solving for omega, Initial residual = 0.00206497, Final residual = 0.000132055, No Iterations 4
smoothSolver:  Solving for k, Initial residual = 0.0507785, Final residual = 0.00363495, No Iterations 5
ExecutionTime = 0.18 s  ClockTime = 0 s

scalarTransport execute: age
smoothSolver:  Solving for age, Initial residual = 0.0708737, Final residual = 0.0068718, No Iterations 7

Time = 13

smoothSolver:  Solving for Ux, Initial residual = 0.0577157, Final residual = 0.0046283, No Iterations 5
smoothSolver:  Solving for Uy, Initial residual = 0.0383688, Final residual = 0.00297244, No Iterations 5
GAMG:  Solving for p, Initial residual = 0.0508729, Final residual = 0.00401369, No Iterations 2
time step continuity errors : sum local = 0.0132183, global = 0.00010783, cumulative = 0.0129078
smoothSolver:  Solving for omega, Initial residual = 0.00196839, Final residual = 0.000115322, No Iterations 4
smoothSolver:  Solving for k, Initial residual = 0.0467602, Final residual = 0.00321418, No Iterations 5
ExecutionTime = 0.19 s  ClockTime = 0 s

scalarTransport execute: age
smoothSolver:  Solving for age, Initial residual = 0.068694, Final residual = 0.00627615, No Iterations 8

Time = 14

smoothSolver:  Solving for Ux, Initial residual = 0.0561347, Final residual = 0.00448988, No Iterations 5
smoothSolver:  Solving for Uy, Initial residual = 0.037443, Final residual = 0.00284806, No Iterations 5
GAMG:  Solving for p, Initial residual = 0.0508956, Final residual = 0.00397124, No Iterations 2
time step continuity errors : sum local = 0.0132967, global = 0.000251555, cumulative = 0.0131593
smoothSolver:  Solving for omega, Initial residual = 0.00192396, Final residual = 0.000182861, No Iterations 3
smoothSolver:  Solving for k, Initial residual = 0.0435573, Final residual = 0.00286394, No Iterations 5
ExecutionTime = 0.2 s  ClockTime = 0 s

scalarTransport execute: age
smoothSolver:  Solving for age, Initial residual = 0.0666679, Final residual = 0.00587628, No Iterations 9

Time = 15

smoothSolver:  Solving for Ux, Initial residual = 0.0546542, Final residual = 0.00434018, No Iterations 5
smoothSolver:  Solving for Uy, Initial residual = 0.0363845, Final residual = 0.00271744, No Iterations 5
GAMG:  Solving for p, Initial residual = 0.0509931, Final residual = 0.0039948, No Iterations 2
time step continuity errors : sum local = 0.0135832, global = 0.000438115, cumulative = 0.0135975
smoothSolver:  Solving for omega, Initial residual = 0.0018801, Final residual = 0.000167908, No Iterations 3
smoothSolver:  Solving for k, Initial residual = 0.0407552, Final residual = 0.00256492, No Iterations 5
ExecutionTime = 0.21 s  ClockTime = 0 s

scalarTransport execute: age
smoothSolver:  Solving for age, Initial residual = 0.0656196, Final residual = 0.00634309, No Iterations 9

Time = 16

smoothSolver:  Solving for Ux, Initial residual = 0.0530374, Final residual = 0.00416748, No Iterations 5
smoothSolver:  Solving for Uy, Initial residual = 0.0350282, Final residual = 0.00258626, No Iterations 5
GAMG:  Solving for p, Initial residual = 0.051268, Final residual = 0.00410003, No Iterations 2
time step continuity errors : sum local = 0.0141291, global = 0.000658162, cumulative = 0.0142556
smoothSolver:  Solving for omega, Initial residual = 0.00181062, Final residual = 0.000152023, No Iterations 3
smoothSolver:  Solving for k, Initial residual = 0.0381002, Final residual = 0.00230285, No Iterations 5
ExecutionTime = 0.22 s  ClockTime = 0 s

scalarTransport execute: age
smoothSolver:  Solving for age, Initial residual = 0.0645926, Final residual = 0.00575262, No Iterations 10

Time = 17

smoothSolver:  Solving for Ux, Initial residual = 0.0514894, Final residual = 0.00396189, No Iterations 5
smoothSolver:  Solving for Uy, Initial residual = 0.0335087, Final residual = 0.00244193, No Iterations 5
GAMG:  Solving for p, Initial residual = 0.0518099, Final residual = 0.00418659, No Iterations 2
time step continuity errors : sum local = 0.0145683, global = 0.000906039, cumulative = 0.0151617
smoothSolver:  Solving for omega, Initial residual = 0.00174406, Final residual = 0.000136413, No Iterations 3
smoothSolver:  Solving for k, Initial residual = 0.0357585, Final residual = 0.00350112, No Iterations 4
ExecutionTime = 0.23 s  ClockTime = 0 s

scalarTransport execute: age
smoothSolver:  Solving for age, Initial residual = 0.0627815, Final residual = 0.00588204, No Iterations 10

Time = 18

smoothSolver:  Solving for Ux, Initial residual = 0.0497343, Final residual = 0.00372264, No Iterations 5
smoothSolver:  Solving for Uy, Initial residual = 0.031988, Final residual = 0.0022854, No Iterations 5
GAMG:  Solving for p, Initial residual = 0.0516836, Final residual = 0.00390343, No Iterations 2
time step continuity errors : sum local = 0.0136475, global = 0.000831772, cumulative = 0.0159934
smoothSolver:  Solving for omega, Initial residual = 0.00166736, Final residual = 0.000123596, No Iterations 3
smoothSolver:  Solving for k, Initial residual = 0.0338521, Final residual = 0.00320673, No Iterations 4
ExecutionTime = 0.25 s  ClockTime = 0 s

scalarTransport execute: age
smoothSolver:  Solving for age, Initial residual = 0.0615736, Final residual = 0.00581305, No Iterations 10

Time = 19

smoothSolver:  Solving for Ux, Initial residual = 0.0478324, Final residual = 0.00344074, No Iterations 5
smoothSolver:  Solving for Uy, Initial residual = 0.0305962, Final residual = 0.00213277, No Iterations 5
GAMG:  Solving for p, Initial residual = 0.0507688, Final residual = 0.00398124, No Iterations 2
time step continuity errors : sum local = 0.0138196, global = 0.000795356, cumulative = 0.0167888
smoothSolver:  Solving for omega, Initial residual = 0.00158666, Final residual = 0.000115308, No Iterations 3
smoothSolver:  Solving for k, Initial residual = 0.0323452, Final residual = 0.00298211, No Iterations 4
ExecutionTime = 0.26 s  ClockTime = 0 s

scalarTransport execute: age
smoothSolver:  Solving for age, Initial residual = 0.0594081, Final residual = 0.00551034, No Iterations 10

Time = 20

smoothSolver:  Solving for Ux, Initial residual = 0.0457175, Final residual = 0.00317781, No Iterations 5
smoothSolver:  Solving for Uy, Initial residual = 0.02917, Final residual = 0.00199994, No Iterations 5
GAMG:  Solving for p, Initial residual = 0.0491356, Final residual = 0.00414759, No Iterations 2
time step continuity errors : sum local = 0.0142451, global = 0.000775337, cumulative = 0.0175641
smoothSolver:  Solving for omega, Initial residual = 0.00148766, Final residual = 0.000108281, No Iterations 3
smoothSolver:  Solving for k, Initial residual = 0.0312005, Final residual = 0.00280953, No Iterations 4
ExecutionTime = 0.27 s  ClockTime = 0 s

scalarTransport execute: age
smoothSolver:  Solving for age, Initial residual = 0.0573691, Final residual = 0.00512888, No Iterations 10

Time = 21

smoothSolver:  Solving for Ux, Initial residual = 0.0433271, Final residual = 0.00293412, No Iterations 5
smoothSolver:  Solving for Uy, Initial residual = 0.0278142, Final residual = 0.00187991, No Iterations 5
GAMG:  Solving for p, Initial residual = 0.0474111, Final residual = 0.00443494, No Iterations 2
time step continuity errors : sum local = 0.0150486, global = 0.000964738, cumulative = 0.0185289
smoothSolver:  Solving for omega, Initial residual = 0.00145392, Final residual = 0.000103603, No Iterations 3
smoothSolver:  Solving for k, Initial residual = 0.0304486, Final residual = 0.00267161, No Iterations 4
ExecutionTime = 0.28 s  ClockTime = 0 s

scalarTransport execute: age
smoothSolver:  Solving for age, Initial residual = 0.0549585, Final residual = 0.00542511, No Iterations 9

Time = 22

smoothSolver:  Solving for Ux, Initial residual = 0.0409586, Final residual = 0.00271696, No Iterations 5
smoothSolver:  Solving for Uy, Initial residual = 0.026639, Final residual = 0.00179462, No Iterations 5
GAMG:  Solving for p, Initial residual = 0.0458895, Final residual = 0.00422056, No Iterations 2
time step continuity errors : sum local = 0.0141987, global = 0.000872499, cumulative = 0.0194014
smoothSolver:  Solving for omega, Initial residual = 0.00147329, Final residual = 0.000100272, No Iterations 3
smoothSolver:  Solving for k, Initial residual = 0.0299672, Final residual = 0.0025485, No Iterations 4
ExecutionTime = 0.29 s  ClockTime = 0 s

scalarTransport execute: age
smoothSolver:  Solving for age, Initial residual = 0.0530737, Final residual = 0.00502792, No Iterations 9

Time = 23

smoothSolver:  Solving for Ux, Initial residual = 0.0388782, Final residual = 0.0025023, No Iterations 5
smoothSolver:  Solving for Uy, Initial residual = 0.0256461, Final residual = 0.00175028, No Iterations 5
GAMG:  Solving for p, Initial residual = 0.0442593, Final residual = 0.00412025, No Iterations 2
time step continuity errors : sum local = 0.0136479, global = 0.000813692, cumulative = 0.0202151
smoothSolver:  Solving for omega, Initial residual = 0.00154203, Final residual = 9.80966e-05, No Iterations 3
smoothSolver:  Solving for k, Initial residual = 0.0296342, Final residual = 0.00244029, No Iterations 4
ExecutionTime = 0.3 s  ClockTime = 0 s

scalarTransport execute: age
smoothSolver:  Solving for age, Initial residual = 0.0512309, Final residual = 0.00467537, No Iterations 9

Time = 24

smoothSolver:  Solving for Ux, Initial residual = 0.0370912, Final residual = 0.00230838, No Iterations 5
smoothSolver:  Solving for Uy, Initial residual = 0.0250972, Final residual = 0.00172468, No Iterations 5
GAMG:  Solving for p, Initial residual = 0.0427823, Final residual = 0.00413877, No Iterations 2
time step continuity errors : sum local = 0.0135123, global = 0.000778269, cumulative = 0.0209933
smoothSolver:  Solving for omega, Initial residual = 0.00155136, Final residual = 9.56816e-05, No Iterations 3
smoothSolver:  Solving for k, Initial residual = 0.0292328, Final residual = 0.00234744, No Iterations 4
ExecutionTime = 0.31 s  ClockTime = 0 s

scalarTransport execute: age
smoothSolver:  Solving for age, Initial residual = 0.0503904, Final residual = 0.00444609, No Iterations 9

Time = 25

smoothSolver:  Solving for Ux, Initial residual = 0.0353936, Final residual = 0.00212039, No Iterations 5
smoothSolver:  Solving for Uy, Initial residual = 0.0249626, Final residual = 0.00170271, No Iterations 5
GAMG:  Solving for p, Initial residual = 0.0418644, Final residual = 0.00402265, No Iterations 2
time step continuity errors : sum local = 0.0129448, global = 0.000761271, cumulative = 0.0217546
smoothSolver:  Solving for omega, Initial residual = 0.00146574, Final residual = 9.29956e-05, No Iterations 3
smoothSolver:  Solving for k, Initial residual = 0.0289533, Final residual = 0.00226972, No Iterations 4
ExecutionTime = 0.32 s  ClockTime = 0 s

scalarTransport execute: age
smoothSolver:  Solving for age, Initial residual = 0.0503002, Final residual = 0.00435026, No Iterations 9

Time = 26

smoothSolver:  Solving for Ux, Initial residual = 0.0337437, Final residual = 0.00328635, No Iterations 4
smoothSolver:  Solving for Uy, Initial residual = 0.0250628, Final residual = 0.00168347, No Iterations 5
GAMG:  Solving for p, Initial residual = 0.0414328, Final residual = 0.00372357, No Iterations 2
time step continuity errors : sum local = 0.0118268, global = 0.000752331, cumulative = 0.0225069
smoothSolver:  Solving for omega, Initial residual = 0.00149743, Final residual = 9.26764e-05, No Iterations 3
smoothSolver:  Solving for k, Initial residual = 0.0287607, Final residual = 0.00219756, No Iterations 4
ExecutionTime = 0.33 s  ClockTime = 0 s

scalarTransport execute: age
smoothSolver:  Solving for age, Initial residual = 0.0506831, Final residual = 0.0049589, No Iterations 8

Time = 27

smoothSolver:  Solving for Ux, Initial residual = 0.0327079, Final residual = 0.00311072, No Iterations 4
smoothSolver:  Solving for Uy, Initial residual = 0.0250268, Final residual = 0.00165495, No Iterations 5
GAMG:  Solving for p, Initial residual = 0.0433877, Final residual = 0.00381586, No Iterations 2
time step continuity errors : sum local = 0.0120178, global = 0.000748232, cumulative = 0.0232552
smoothSolver:  Solving for omega, Initial residual = 0.00153207, Final residual = 9.40532e-05, No Iterations 3
smoothSolver:  Solving for k, Initial residual = 0.0286642, Final residual = 0.00211089, No Iterations 4
ExecutionTime = 0.34 s  ClockTime = 0 s

scalarTransport execute: age
smoothSolver:  Solving for age, Initial residual = 0.050878, Final residual = 0.00486594, No Iterations 8

Time = 28

smoothSolver:  Solving for Ux, Initial residual = 0.0318982, Final residual = 0.00292595, No Iterations 4
smoothSolver:  Solving for Uy, Initial residual = 0.0251376, Final residual = 0.00161733, No Iterations 5
GAMG:  Solving for p, Initial residual = 0.045218, Final residual = 0.00398281, No Iterations 2
time step continuity errors : sum local = 0.0125178, global = 0.00075033, cumulative = 0.0240055
smoothSolver:  Solving for omega, Initial residual = 0.00161452, Final residual = 9.5687e-05, No Iterations 3
smoothSolver:  Solving for k, Initial residual = 0.0282131, Final residual = 0.00199239, No Iterations 4
ExecutionTime = 0.36 s  ClockTime = 0 s

scalarTransport execute: age
smoothSolver:  Solving for age, Initial residual = 0.0503268, Final residual = 0.00485342, No Iterations 8

Time = 29

smoothSolver:  Solving for Ux, Initial residual = 0.0310942, Final residual = 0.00272682, No Iterations 4
smoothSolver:  Solving for Uy, Initial residual = 0.0252981, Final residual = 0.00157036, No Iterations 5
GAMG:  Solving for p, Initial residual = 0.0462919, Final residual = 0.00402496, No Iterations 2
time step continuity errors : sum local = 0.012731, global = 0.000747468, cumulative = 0.024753
smoothSolver:  Solving for omega, Initial residual = 0.00158437, Final residual = 9.60073e-05, No Iterations 3
smoothSolver:  Solving for k, Initial residual = 0.0272579, Final residual = 0.00184053, No Iterations 4
ExecutionTime = 0.37 s  ClockTime = 0 s

scalarTransport execute: age
smoothSolver:  Solving for age, Initial residual = 0.0500379, Final residual = 0.00482985, No Iterations 8

Time = 30

smoothSolver:  Solving for Ux, Initial residual = 0.0304153, Final residual = 0.00252575, No Iterations 4
smoothSolver:  Solving for Uy, Initial residual = 0.0253122, Final residual = 0.00151222, No Iterations 5
GAMG:  Solving for p, Initial residual = 0.0465599, Final residual = 0.00396746, No Iterations 2
time step continuity errors : sum local = 0.0126373, global = 0.000730381, cumulative = 0.0254833
smoothSolver:  Solving for omega, Initial residual = 0.00160291, Final residual = 9.61599e-05, No Iterations 3
smoothSolver:  Solving for k, Initial residual = 0.0259254, Final residual = 0.00166328, No Iterations 4
ExecutionTime = 0.38 s  ClockTime = 0 s

scalarTransport execute: age
smoothSolver:  Solving for age, Initial residual = 0.0492272, Final residual = 0.00483983, No Iterations 8

Time = 31

smoothSolver:  Solving for Ux, Initial residual = 0.0297309, Final residual = 0.00235094, No Iterations 4
smoothSolver:  Solving for Uy, Initial residual = 0.0250562, Final residual = 0.00242428, No Iterations 4
GAMG:  Solving for p, Initial residual = 0.045889, Final residual = 0.0037981, No Iterations 2
time step continuity errors : sum local = 0.0121944, global = 0.000704785, cumulative = 0.0261881
smoothSolver:  Solving for omega, Initial residual = 0.0015389, Final residual = 9.46161e-05, No Iterations 3
smoothSolver:  Solving for k, Initial residual = 0.0242082, Final residual = 0.00147157, No Iterations 4
ExecutionTime = 0.39 s  ClockTime = 0 s

scalarTransport execute: age
smoothSolver:  Solving for age, Initial residual = 0.0476166, Final residual = 0.00466968, No Iterations 8

Time = 32

smoothSolver:  Solving for Ux, Initial residual = 0.0289589, Final residual = 0.00220277, No Iterations 4
smoothSolver:  Solving for Uy, Initial residual = 0.0246205, Final residual = 0.00231931, No Iterations 4
GAMG:  Solving for p, Initial residual = 0.0448439, Final residual = 0.00394492, No Iterations 2
time step continuity errors : sum local = 0.0128771, global = 0.000825351, cumulative = 0.0270135
smoothSolver:  Solving for omega, Initial residual = 0.00153638, Final residual = 9.31733e-05, No Iterations 3
smoothSolver:  Solving for k, Initial residual = 0.0225558, Final residual = 0.00129301, No Iterations 4
ExecutionTime = 0.4 s  ClockTime = 0 s

scalarTransport execute: age
smoothSolver:  Solving for age, Initial residual = 0.0462091, Final residual = 0.00440274, No Iterations 8

Time = 33

smoothSolver:  Solving for Ux, Initial residual = 0.028846, Final residual = 0.00215661, No Iterations 4
smoothSolver:  Solving for Uy, Initial residual = 0.0237838, Final residual = 0.00218475, No Iterations 4
GAMG:  Solving for p, Initial residual = 0.0443148, Final residual = 0.00401957, No Iterations 2
time step continuity errors : sum local = 0.0133681, global = 0.000947415, cumulative = 0.0279609
smoothSolver:  Solving for omega, Initial residual = 0.00150333, Final residual = 9.09653e-05, No Iterations 3
smoothSolver:  Solving for k, Initial residual = 0.0210496, Final residual = 0.00114383, No Iterations 4
ExecutionTime = 0.41 s  ClockTime = 0 s

scalarTransport execute: age
smoothSolver:  Solving for age, Initial residual = 0.0448353, Final residual = 0.00438643, No Iterations 8

Time = 34

smoothSolver:  Solving for Ux, Initial residual = 0.0290229, Final residual = 0.00212519, No Iterations 4
smoothSolver:  Solving for Uy, Initial residual = 0.0226714, Final residual = 0.00202405, No Iterations 4
GAMG:  Solving for p, Initial residual = 0.0433827, Final residual = 0.00419583, No Iterations 2
time step continuity errors : sum local = 0.0142132, global = 0.00106808, cumulative = 0.029029
smoothSolver:  Solving for omega, Initial residual = 0.00144105, Final residual = 8.84579e-05, No Iterations 3
smoothSolver:  Solving for k, Initial residual = 0.0197034, Final residual = 0.00193744, No Iterations 3
ExecutionTime = 0.42 s  ClockTime = 0 s

scalarTransport execute: age
smoothSolver:  Solving for age, Initial residual = 0.0437376, Final residual = 0.00436802, No Iterations 8

Time = 35

smoothSolver:  Solving for Ux, Initial residual = 0.0291905, Final residual = 0.00209899, No Iterations 4
smoothSolver:  Solving for Uy, Initial residual = 0.0215598, Final residual = 0.0018595, No Iterations 4
GAMG:  Solving for p, Initial residual = 0.0428403, Final residual = 0.00424995, No Iterations 2
time step continuity errors : sum local = 0.0146633, global = 0.00119634, cumulative = 0.0302253
smoothSolver:  Solving for omega, Initial residual = 0.0014124, Final residual = 8.56302e-05, No Iterations 3
smoothSolver:  Solving for k, Initial residual = 0.018668, Final residual = 0.00181441, No Iterations 3
ExecutionTime = 0.43 s  ClockTime = 0 s

scalarTransport execute: age
smoothSolver:  Solving for age, Initial residual = 0.0431052, Final residual = 0.00430747, No Iterations 8

Time = 36

smoothSolver:  Solving for Ux, Initial residual = 0.029576, Final residual = 0.0020755, No Iterations 4
smoothSolver:  Solving for Uy, Initial residual = 0.0204589, Final residual = 0.00168361, No Iterations 4
GAMG:  Solving for p, Initial residual = 0.0425245, Final residual = 0.00384762, No Iterations 2
time step continuity errors : sum local = 0.0134895, global = 0.00103419, cumulative = 0.0312595
smoothSolver:  Solving for omega, Initial residual = 0.00137086, Final residual = 8.27866e-05, No Iterations 3
smoothSolver:  Solving for k, Initial residual = 0.0179136, Final residual = 0.00172647, No Iterations 3
ExecutionTime = 0.44 s  ClockTime = 0 s

scalarTransport execute: age
smoothSolver:  Solving for age, Initial residual = 0.0424665, Final residual = 0.00361757, No Iterations 9

Time = 37

smoothSolver:  Solving for Ux, Initial residual = 0.0300362, Final residual = 0.00203881, No Iterations 4
smoothSolver:  Solving for Uy, Initial residual = 0.0195506, Final residual = 0.00150019, No Iterations 4
GAMG:  Solving for p, Initial residual = 0.0424721, Final residual = 0.00410613, No Iterations 2
time step continuity errors : sum local = 0.0144978, global = 0.000924314, cumulative = 0.0321838
smoothSolver:  Solving for omega, Initial residual = 0.00130529, Final residual = 8.04986e-05, No Iterations 3
smoothSolver:  Solving for k, Initial residual = 0.0173256, Final residual = 0.00168175, No Iterations 3
ExecutionTime = 0.45 s  ClockTime = 0 s

scalarTransport execute: age
smoothSolver:  Solving for age, Initial residual = 0.0405694, Final residual = 0.00349359, No Iterations 9

Time = 38

smoothSolver:  Solving for Ux, Initial residual = 0.0306085, Final residual = 0.00206931, No Iterations 4
smoothSolver:  Solving for Uy, Initial residual = 0.018806, Final residual = 0.00136473, No Iterations 4
GAMG:  Solving for p, Initial residual = 0.0427959, Final residual = 0.00194451, No Iterations 3
time step continuity errors : sum local = 0.00692761, global = 0.000831189, cumulative = 0.033015
smoothSolver:  Solving for omega, Initial residual = 0.00134703, Final residual = 7.96627e-05, No Iterations 3
smoothSolver:  Solving for k, Initial residual = 0.0172392, Final residual = 0.0016858, No Iterations 3
ExecutionTime = 0.46 s  ClockTime = 0 s

scalarTransport execute: age
smoothSolver:  Solving for age, Initial residual = 0.0392574, Final residual = 0.00337139, No Iterations 9

Time = 39

smoothSolver:  Solving for Ux, Initial residual = 0.0314383, Final residual = 0.00208259, No Iterations 4
smoothSolver:  Solving for Uy, Initial residual = 0.0187112, Final residual = 0.00128645, No Iterations 4
GAMG:  Solving for p, Initial residual = 0.0422047, Final residual = 0.00399184, No Iterations 2
time step continuity errors : sum local = 0.0143935, global = 0.000718589, cumulative = 0.0337336
smoothSolver:  Solving for omega, Initial residual = 0.00133507, Final residual = 7.55769e-05, No Iterations 3
smoothSolver:  Solving for k, Initial residual = 0.0169959, Final residual = 0.00169407, No Iterations 3
ExecutionTime = 0.47 s  ClockTime = 0 s

scalarTransport execute: age
smoothSolver:  Solving for age, Initial residual = 0.0391307, Final residual = 0.00342697, No Iterations 9

Time = 40

smoothSolver:  Solving for Ux, Initial residual = 0.031363, Final residual = 0.00215806, No Iterations 4
smoothSolver:  Solving for Uy, Initial residual = 0.0184367, Final residual = 0.00127189, No Iterations 4
GAMG:  Solving for p, Initial residual = 0.0441832, Final residual = 0.00175416, No Iterations 3
time step continuity errors : sum local = 0.00638754, global = 0.000420636, cumulative = 0.0341542
smoothSolver:  Solving for omega, Initial residual = 0.00136565, Final residual = 7.61737e-05, No Iterations 3
smoothSolver:  Solving for k, Initial residual = 0.0174892, Final residual = 0.00171387, No Iterations 3
ExecutionTime = 0.48 s  ClockTime = 0 s

scalarTransport execute: age
smoothSolver:  Solving for age, Initial residual = 0.0400545, Final residual = 0.00366513, No Iterations 8

Time = 41

smoothSolver:  Solving for Ux, Initial residual = 0.0318322, Final residual = 0.00212896, No Iterations 4
smoothSolver:  Solving for Uy, Initial residual = 0.0194117, Final residual = 0.00131401, No Iterations 4
GAMG:  Solving for p, Initial residual = 0.0437555, Final residual = 0.00147178, No Iterations 3
time step continuity errors : sum local = 0.00540852, global = 0.00016903, cumulative = 0.0343233
smoothSolver:  Solving for omega, Initial residual = 0.0013599, Final residual = 7.27471e-05, No Iterations 3
smoothSolver:  Solving for k, Initial residual = 0.0175813, Final residual = 0.00170508, No Iterations 3
ExecutionTime = 0.49 s  ClockTime = 0 s

scalarTransport execute: age
smoothSolver:  Solving for age, Initial residual = 0.0403337, Final residual = 0.00343192, No Iterations 8

Time = 42

smoothSolver:  Solving for Ux, Initial residual = 0.0318814, Final residual = 0.00215049, No Iterations 4
smoothSolver:  Solving for Uy, Initial residual = 0.0198936, Final residual = 0.00135639, No Iterations 4
GAMG:  Solving for p, Initial residual = 0.0450406, Final residual = 0.00207556, No Iterations 3
time step continuity errors : sum local = 0.0076747, global = -7.73724e-05, cumulative = 0.0342459
smoothSolver:  Solving for omega, Initial residual = 0.00130921, Final residual = 7.03241e-05, No Iterations 3
smoothSolver:  Solving for k, Initial residual = 0.017643, Final residual = 0.00166456, No Iterations 3
ExecutionTime = 0.51 s  ClockTime = 0 s

scalarTransport execute: age
smoothSolver:  Solving for age, Initial residual = 0.0387505, Final residual = 0.00367959, No Iterations 7

Time = 43

smoothSolver:  Solving for Ux, Initial residual = 0.0319028, Final residual = 0.00218347, No Iterations 4
smoothSolver:  Solving for Uy, Initial residual = 0.0199909, Final residual = 0.00137624, No Iterations 4
GAMG:  Solving for p, Initial residual = 0.0459547, Final residual = 0.00239682, No Iterations 3
time step continuity errors : sum local = 0.00889824, global = -0.000300297, cumulative = 0.0339456
smoothSolver:  Solving for omega, Initial residual = 0.00127633, Final residual = 6.91818e-05, No Iterations 3
smoothSolver:  Solving for k, Initial residual = 0.0175243, Final residual = 0.00160356, No Iterations 3
ExecutionTime = 0.52 s  ClockTime = 0 s

scalarTransport execute: age
smoothSolver:  Solving for age, Initial residual = 0.0376024, Final residual = 0.0035676, No Iterations 7

Time = 44

smoothSolver:  Solving for Ux, Initial residual = 0.0316811, Final residual = 0.00218636, No Iterations 4
smoothSolver:  Solving for Uy, Initial residual = 0.0201072, Final residual = 0.00138313, No Iterations 4
GAMG:  Solving for p, Initial residual = 0.0460202, Final residual = 0.00233274, No Iterations 3
time step continuity errors : sum local = 0.00867913, global = -0.000409794, cumulative = 0.0335358
smoothSolver:  Solving for omega, Initial residual = 0.00125143, Final residual = 6.86909e-05, No Iterations 3
smoothSolver:  Solving for k, Initial residual = 0.0172478, Final residual = 0.00153642, No Iterations 3
ExecutionTime = 0.53 s  ClockTime = 0 s

scalarTransport execute: age
smoothSolver:  Solving for age, Initial residual = 0.0377273, Final residual = 0.00335729, No Iterations 8

Time = 45

smoothSolver:  Solving for Ux, Initial residual = 0.0314958, Final residual = 0.00219628, No Iterations 4
smoothSolver:  Solving for Uy, Initial residual = 0.0199013, Final residual = 0.00138197, No Iterations 4
GAMG:  Solving for p, Initial residual = 0.0455377, Final residual = 0.00233284, No Iterations 3
time step continuity errors : sum local = 0.00870609, global = -0.000484566, cumulative = 0.0330512
smoothSolver:  Solving for omega, Initial residual = 0.00121242, Final residual = 6.77649e-05, No Iterations 3
smoothSolver:  Solving for k, Initial residual = 0.0168686, Final residual = 0.00148001, No Iterations 3
ExecutionTime = 0.54 s  ClockTime = 0 s

scalarTransport execute: age
smoothSolver:  Solving for age, Initial residual = 0.038507, Final residual = 0.0038424, No Iterations 8

Time = 46

smoothSolver:  Solving for Ux, Initial residual = 0.0312711, Final residual = 0.00222158, No Iterations 4
smoothSolver:  Solving for Uy, Initial residual = 0.0196543, Final residual = 0.00136748, No Iterations 4
GAMG:  Solving for p, Initial residual = 0.0449548, Final residual = 0.00232526, No Iterations 3
time step continuity errors : sum local = 0.00869374, global = -0.00050863, cumulative = 0.0325426
smoothSolver:  Solving for omega, Initial residual = 0.00116683, Final residual = 6.61116e-05, No Iterations 3
smoothSolver:  Solving for k, Initial residual = 0.0165563, Final residual = 0.0014472, No Iterations 3
ExecutionTime = 0.55 s  ClockTime = 0 s

scalarTransport execute: age
smoothSolver:  Solving for age, Initial residual = 0.0400681, Final residual = 0.00349272, No Iterations 10

Time = 47

smoothSolver:  Solving for Ux, Initial residual = 0.031017, Final residual = 0.00224933, No Iterations 4
smoothSolver:  Solving for Uy, Initial residual = 0.0192888, Final residual = 0.00133842, No Iterations 4
GAMG:  Solving for p, Initial residual = 0.0444356, Final residual = 0.002251, No Iterations 3
time step continuity errors : sum local = 0.00843133, global = -0.000512918, cumulative = 0.0320297
smoothSolver:  Solving for omega, Initial residual = 0.00111835, Final residual = 6.3834e-05, No Iterations 3
smoothSolver:  Solving for k, Initial residual = 0.0163726, Final residual = 0.00143349, No Iterations 3
ExecutionTime = 0.56 s  ClockTime = 0 s

scalarTransport execute: age
smoothSolver:  Solving for age, Initial residual = 0.0418502, Final residual = 0.00405659, No Iterations 10

Time = 48

smoothSolver:  Solving for Ux, Initial residual = 0.0307593, Final residual = 0.00227149, No Iterations 4
smoothSolver:  Solving for Uy, Initial residual = 0.0190176, Final residual = 0.00130633, No Iterations 4
GAMG:  Solving for p, Initial residual = 0.0439087, Final residual = 0.00221503, No Iterations 3
time step continuity errors : sum local = 0.00831333, global = -0.00054527, cumulative = 0.0314844
smoothSolver:  Solving for omega, Initial residual = 0.00107067, Final residual = 6.12135e-05, No Iterations 3
smoothSolver:  Solving for k, Initial residual = 0.0162715, Final residual = 0.00143561, No Iterations 3
ExecutionTime = 0.57 s  ClockTime = 0 s

scalarTransport execute: age
smoothSolver:  Solving for age, Initial residual = 0.0444207, Final residual = 0.00436616, No Iterations 10

Time = 49

smoothSolver:  Solving for Ux, Initial residual = 0.0303328, Final residual = 0.00228375, No Iterations 4
smoothSolver:  Solving for Uy, Initial residual = 0.0190113, Final residual = 0.00129119, No Iterations 4
GAMG:  Solving for p, Initial residual = 0.0431334, Final residual = 0.00200284, No Iterations 3
time step continuity errors : sum local = 0.00754098, global = -0.00051302, cumulative = 0.0309714
smoothSolver:  Solving for omega, Initial residual = 0.00106193, Final residual = 5.96835e-05, No Iterations 3
smoothSolver:  Solving for k, Initial residual = 0.016137, Final residual = 0.00142924, No Iterations 3
ExecutionTime = 0.58 s  ClockTime = 0 s

scalarTransport execute: age
smoothSolver:  Solving for age, Initial residual = 0.045982, Final residual = 0.00443793, No Iterations 10

Time = 50

smoothSolver:  Solving for Ux, Initial residual = 0.0298689, Final residual = 0.00227552, No Iterations 4
smoothSolver:  Solving for Uy, Initial residual = 0.0191398, Final residual = 0.00130198, No Iterations 4
GAMG:  Solving for p, Initial residual = 0.0419534, Final residual = 0.00182163, No Iterations 3
time step continuity errors : sum local = 0.00690065, global = -0.000470743, cumulative = 0.0305006
smoothSolver:  Solving for omega, Initial residual = 0.00105988, Final residual = 5.82912e-05, No Iterations 3
smoothSolver:  Solving for k, Initial residual = 0.0160875, Final residual = 0.0014216, No Iterations 3
ExecutionTime = 0.59 s  ClockTime = 0 s

scalarTransport execute: age
smoothSolver:  Solving for age, Initial residual = 0.0465574, Final residual = 0.00398859, No Iterations 10

Time = 51

smoothSolver:  Solving for Ux, Initial residual = 0.0292671, Final residual = 0.00225401, No Iterations 4
smoothSolver:  Solving for Uy, Initial residual = 0.0192199, Final residual = 0.00132127, No Iterations 4
GAMG:  Solving for p, Initial residual = 0.0407705, Final residual = 0.00169505, No Iterations 3
time step continuity errors : sum local = 0.00647138, global = -0.000468319, cumulative = 0.0300323
smoothSolver:  Solving for omega, Initial residual = 0.00109087, Final residual = 5.75628e-05, No Iterations 3
smoothSolver:  Solving for k, Initial residual = 0.0160205, Final residual = 0.00140966, No Iterations 3
ExecutionTime = 0.6 s  ClockTime = 0 s

scalarTransport execute: age
smoothSolver:  Solving for age, Initial residual = 0.047158, Final residual = 0.00464877, No Iterations 8

Time = 52

smoothSolver:  Solving for Ux, Initial residual = 0.0286029, Final residual = 0.00221988, No Iterations 4
smoothSolver:  Solving for Uy, Initial residual = 0.0192159, Final residual = 0.00133836, No Iterations 4
GAMG:  Solving for p, Initial residual = 0.0397642, Final residual = 0.00156212, No Iterations 3
time step continuity errors : sum local = 0.00601194, global = -0.000476909, cumulative = 0.0295554
smoothSolver:  Solving for omega, Initial residual = 0.0011169, Final residual = 5.69212e-05, No Iterations 3
smoothSolver:  Solving for k, Initial residual = 0.0161017, Final residual = 0.00141563, No Iterations 3
ExecutionTime = 0.61 s  ClockTime = 0 s

scalarTransport execute: age
smoothSolver:  Solving for age, Initial residual = 0.0465121, Final residual = 0.00400826, No Iterations 8

Time = 53

smoothSolver:  Solving for Ux, Initial residual = 0.0278361, Final residual = 0.00216868, No Iterations 4
smoothSolver:  Solving for Uy, Initial residual = 0.0192179, Final residual = 0.00134828, No Iterations 4
GAMG:  Solving for p, Initial residual = 0.0388319, Final residual = 0.00138533, No Iterations 3
time step continuity errors : sum local = 0.00537659, global = -0.000480477, cumulative = 0.0290749
smoothSolver:  Solving for omega, Initial residual = 0.00113449, Final residual = 5.6697e-05, No Iterations 3
smoothSolver:  Solving for k, Initial residual = 0.0163041, Final residual = 0.00144672, No Iterations 3
ExecutionTime = 0.62 s  ClockTime = 0 s

scalarTransport execute: age
smoothSolver:  Solving for age, Initial residual = 0.0449995, Final residual = 0.00418462, No Iterations 7

Time = 54

smoothSolver:  Solving for Ux, Initial residual = 0.0269525, Final residual = 0.00210343, No Iterations 4
smoothSolver:  Solving for Uy, Initial residual = 0.0192004, Final residual = 0.00134746, No Iterations 4
GAMG:  Solving for p, Initial residual = 0.0382084, Final residual = 0.00122466, No Iterations 3
time step continuity errors : sum local = 0.0047953, global = -0.000473986, cumulative = 0.028601
smoothSolver:  Solving for omega, Initial residual = 0.00112697, Final residual = 5.66758e-05, No Iterations 3
smoothSolver:  Solving for k, Initial residual = 0.0166112, Final residual = 0.00147186, No Iterations 3
ExecutionTime = 0.64 s  ClockTime = 0 s

scalarTransport execute: age
smoothSolver:  Solving for age, Initial residual = 0.0419532, Final residual = 0.00383205, No Iterations 7

Time = 55

smoothSolver:  Solving for Ux, Initial residual = 0.0259845, Final residual = 0.00202228, No Iterations 4
smoothSolver:  Solving for Uy, Initial residual = 0.0189557, Final residual = 0.00131896, No Iterations 4
GAMG:  Solving for p, Initial residual = 0.0377559, Final residual = 0.00356874, No Iterations 2
time step continuity errors : sum local = 0.0140799, global = -0.000557138, cumulative = 0.0280438
smoothSolver:  Solving for omega, Initial residual = 0.00110203, Final residual = 5.48099e-05, No Iterations 3
smoothSolver:  Solving for k, Initial residual = 0.0168604, Final residual = 0.00148226, No Iterations 3
ExecutionTime = 0.65 s  ClockTime = 0 s

scalarTransport execute: age
smoothSolver:  Solving for age, Initial residual = 0.0393702, Final residual = 0.00355709, No Iterations 7

Time = 56

smoothSolver:  Solving for Ux, Initial residual = 0.0249369, Final residual = 0.00195469, No Iterations 4
smoothSolver:  Solving for Uy, Initial residual = 0.0180815, Final residual = 0.00122229, No Iterations 4
GAMG:  Solving for p, Initial residual = 0.0395761, Final residual = 0.00382219, No Iterations 2
time step continuity errors : sum local = 0.0150819, global = -0.000781917, cumulative = 0.0272619
smoothSolver:  Solving for omega, Initial residual = 0.00106897, Final residual = 5.37241e-05, No Iterations 3
smoothSolver:  Solving for k, Initial residual = 0.0169683, Final residual = 0.00148994, No Iterations 3
ExecutionTime = 0.66 s  ClockTime = 1 s

scalarTransport execute: age
smoothSolver:  Solving for age, Initial residual = 0.0369235, Final residual = 0.00343518, No Iterations 7

Time = 57

smoothSolver:  Solving for Ux, Initial residual = 0.0235501, Final residual = 0.00180112, No Iterations 4
smoothSolver:  Solving for Uy, Initial residual = 0.0176034, Final residual = 0.00115776, No Iterations 4
GAMG:  Solving for p, Initial residual = 0.0380283, Final residual = 0.00306694, No Iterations 2
time step continuity errors : sum local = 0.0121212, global = -0.000918016, cumulative = 0.0263439
smoothSolver:  Solving for omega, Initial residual = 0.00105122, Final residual = 5.28307e-05, No Iterations 3
smoothSolver:  Solving for k, Initial residual = 0.0168652, Final residual = 0.00146783, No Iterations 3
ExecutionTime = 0.67 s  ClockTime = 1 s

scalarTransport execute: age
smoothSolver:  Solving for age, Initial residual = 0.0356177, Final residual = 0.00334952, No Iterations 7

Time = 58

smoothSolver:  Solving for Ux, Initial residual = 0.0221746, Final residual = 0.00165906, No Iterations 4
smoothSolver:  Solving for Uy, Initial residual = 0.0171724, Final residual = 0.00111742, No Iterations 4
GAMG:  Solving for p, Initial residual = 0.0360343, Final residual = 0.00254128, No Iterations 2
time step continuity errors : sum local = 0.010084, global = -0.000979173, cumulative = 0.0253647
smoothSolver:  Solving for omega, Initial residual = 0.00104713, Final residual = 5.12703e-05, No Iterations 3
smoothSolver:  Solving for k, Initial residual = 0.016538, Final residual = 0.00140619, No Iterations 3
ExecutionTime = 0.68 s  ClockTime = 1 s

scalarTransport execute: age
smoothSolver:  Solving for age, Initial residual = 0.0342445, Final residual = 0.00335667, No Iterations 7

Time = 59

smoothSolver:  Solving for Ux, Initial residual = 0.0208295, Final residual = 0.00152862, No Iterations 4
smoothSolver:  Solving for Uy, Initial residual = 0.0164614, Final residual = 0.00107466, No Iterations 4
GAMG:  Solving for p, Initial residual = 0.0349374, Final residual = 0.00239597, No Iterations 2
time step continuity errors : sum local = 0.00955805, global = -0.000954524, cumulative = 0.0244102
smoothSolver:  Solving for omega, Initial residual = 0.00104115, Final residual = 4.97343e-05, No Iterations 3
smoothSolver:  Solving for k, Initial residual = 0.0160585, Final residual = 0.00132364, No Iterations 3
ExecutionTime = 0.69 s  ClockTime = 1 s

scalarTransport execute: age
smoothSolver:  Solving for age, Initial residual = 0.0328861, Final residual = 0.00283794, No Iterations 8

Time = 60

smoothSolver:  Solving for Ux, Initial residual = 0.0194747, Final residual = 0.00139524, No Iterations 4
smoothSolver:  Solving for Uy, Initial residual = 0.0156571, Final residual = 0.00102218, No Iterations 4
GAMG:  Solving for p, Initial residual = 0.0342046, Final residual = 0.00243038, No Iterations 2
time step continuity errors : sum local = 0.00975064, global = -0.000902871, cumulative = 0.0235073
smoothSolver:  Solving for omega, Initial residual = 0.00101896, Final residual = 4.81626e-05, No Iterations 3
smoothSolver:  Solving for k, Initial residual = 0.0154866, Final residual = 0.00126358, No Iterations 3
ExecutionTime = 0.7 s  ClockTime = 1 s

scalarTransport execute: age
smoothSolver:  Solving for age, Initial residual = 0.0313296, Final residual = 0.00275656, No Iterations 8

Time = 61

smoothSolver:  Solving for Ux, Initial residual = 0.0181119, Final residual = 0.00126659, No Iterations 4
smoothSolver:  Solving for Uy, Initial residual = 0.014872, Final residual = 0.000963735, No Iterations 4
GAMG:  Solving for p, Initial residual = 0.0332168, Final residual = 0.00243767, No Iterations 2
time step continuity errors : sum local = 0.0098362, global = -0.000848693, cumulative = 0.0226586
smoothSolver:  Solving for omega, Initial residual = 0.00100656, Final residual = 4.65003e-05, No Iterations 3
smoothSolver:  Solving for k, Initial residual = 0.0149467, Final residual = 0.00121953, No Iterations 3
ExecutionTime = 0.71 s  ClockTime = 1 s

scalarTransport execute: age
smoothSolver:  Solving for age, Initial residual = 0.0299203, Final residual = 0.00273032, No Iterations 8

Time = 62

smoothSolver:  Solving for Ux, Initial residual = 0.0168411, Final residual = 0.00116451, No Iterations 4
smoothSolver:  Solving for Uy, Initial residual = 0.0142273, Final residual = 0.000901298, No Iterations 4
GAMG:  Solving for p, Initial residual = 0.0321984, Final residual = 0.00254359, No Iterations 2
time step continuity errors : sum local = 0.0103296, global = -0.000839047, cumulative = 0.0218196
smoothSolver:  Solving for omega, Initial residual = 0.000977738, Final residual = 4.413e-05, No Iterations 3
smoothSolver:  Solving for k, Initial residual = 0.0144394, Final residual = 0.00116907, No Iterations 3
ExecutionTime = 0.72 s  ClockTime = 1 s

scalarTransport execute: age
smoothSolver:  Solving for age, Initial residual = 0.0286898, Final residual = 0.00270361, No Iterations 8

Time = 63

smoothSolver:  Solving for Ux, Initial residual = 0.0157005, Final residual = 0.00109122, No Iterations 4
smoothSolver:  Solving for Uy, Initial residual = 0.0136642, Final residual = 0.000844216, No Iterations 4
GAMG:  Solving for p, Initial residual = 0.0314085, Final residual = 0.00244232, No Iterations 2
time step continuity errors : sum local = 0.00996151, global = -0.000872532, cumulative = 0.020947
smoothSolver:  Solving for omega, Initial residual = 0.000951206, Final residual = 4.18006e-05, No Iterations 3
smoothSolver:  Solving for k, Initial residual = 0.0139139, Final residual = 0.00112416, No Iterations 3
ExecutionTime = 0.73 s  ClockTime = 1 s

scalarTransport execute: age
smoothSolver:  Solving for age, Initial residual = 0.0277366, Final residual = 0.00273482, No Iterations 8

Time = 64

smoothSolver:  Solving for Ux, Initial residual = 0.0145555, Final residual = 0.00102191, No Iterations 4
smoothSolver:  Solving for Uy, Initial residual = 0.0131686, Final residual = 0.000804217, No Iterations 4
GAMG:  Solving for p, Initial residual = 0.0304612, Final residual = 0.00212242, No Iterations 2
time step continuity errors : sum local = 0.00869634, global = -0.00085205, cumulative = 0.020095
smoothSolver:  Solving for omega, Initial residual = 0.000917682, Final residual = 9.16041e-05, No Iterations 2
smoothSolver:  Solving for k, Initial residual = 0.0133777, Final residual = 0.00108585, No Iterations 3
ExecutionTime = 0.74 s  ClockTime = 1 s

scalarTransport execute: age
smoothSolver:  Solving for age, Initial residual = 0.0272006, Final residual = 0.00237688, No Iterations 9

Time = 65

smoothSolver:  Solving for Ux, Initial residual = 0.0138063, Final residual = 0.000976567, No Iterations 4
smoothSolver:  Solving for Uy, Initial residual = 0.0126388, Final residual = 0.000778616, No Iterations 4
GAMG:  Solving for p, Initial residual = 0.0292216, Final residual = 0.00211066, No Iterations 2
time step continuity errors : sum local = 0.00871093, global = -0.000824454, cumulative = 0.0192705
smoothSolver:  Solving for omega, Initial residual = 0.000918165, Final residual = 4.09586e-05, No Iterations 3
smoothSolver:  Solving for k, Initial residual = 0.0130023, Final residual = 0.0010505, No Iterations 3
ExecutionTime = 0.75 s  ClockTime = 1 s

scalarTransport execute: age
smoothSolver:  Solving for age, Initial residual = 0.0267411, Final residual = 0.00239854, No Iterations 9

Time = 66

smoothSolver:  Solving for Ux, Initial residual = 0.0132405, Final residual = 0.000951169, No Iterations 4
smoothSolver:  Solving for Uy, Initial residual = 0.0120947, Final residual = 0.000745521, No Iterations 4
GAMG:  Solving for p, Initial residual = 0.0284526, Final residual = 0.00203425, No Iterations 2
time step continuity errors : sum local = 0.00842976, global = -0.000877372, cumulative = 0.0183932
smoothSolver:  Solving for omega, Initial residual = 0.000871709, Final residual = 3.78547e-05, No Iterations 3
smoothSolver:  Solving for k, Initial residual = 0.0127881, Final residual = 0.00102295, No Iterations 3
ExecutionTime = 0.76 s  ClockTime = 1 s

scalarTransport execute: age
smoothSolver:  Solving for age, Initial residual = 0.0266197, Final residual = 0.00236169, No Iterations 9

Time = 67

smoothSolver:  Solving for Ux, Initial residual = 0.0128606, Final residual = 0.000921632, No Iterations 4
smoothSolver:  Solving for Uy, Initial residual = 0.0116257, Final residual = 0.000713434, No Iterations 4
GAMG:  Solving for p, Initial residual = 0.0274882, Final residual = 0.00191011, No Iterations 2
time step continuity errors : sum local = 0.00795149, global = -0.000933826, cumulative = 0.0174593
smoothSolver:  Solving for omega, Initial residual = 0.000821629, Final residual = 3.51786e-05, No Iterations 3
smoothSolver:  Solving for k, Initial residual = 0.0126504, Final residual = 0.00101041, No Iterations 3
ExecutionTime = 0.77 s  ClockTime = 1 s

scalarTransport execute: age
smoothSolver:  Solving for age, Initial residual = 0.026178, Final residual = 0.00231134, No Iterations 9

Time = 68

smoothSolver:  Solving for Ux, Initial residual = 0.0126137, Final residual = 0.000902076, No Iterations 4
smoothSolver:  Solving for Uy, Initial residual = 0.0112381, Final residual = 0.000683128, No Iterations 4
GAMG:  Solving for p, Initial residual = 0.0267352, Final residual = 0.00167432, No Iterations 2
time step continuity errors : sum local = 0.00699911, global = -0.00088319, cumulative = 0.0165762
smoothSolver:  Solving for omega, Initial residual = 0.000777397, Final residual = 7.74234e-05, No Iterations 2
smoothSolver:  Solving for k, Initial residual = 0.0124944, Final residual = 0.000992023, No Iterations 3
ExecutionTime = 0.78 s  ClockTime = 1 s

scalarTransport execute: age
smoothSolver:  Solving for age, Initial residual = 0.0256559, Final residual = 0.00225088, No Iterations 9

Time = 69

smoothSolver:  Solving for Ux, Initial residual = 0.0124683, Final residual = 0.000884543, No Iterations 4
smoothSolver:  Solving for Uy, Initial residual = 0.0109662, Final residual = 0.000666994, No Iterations 4
GAMG:  Solving for p, Initial residual = 0.0257665, Final residual = 0.00167256, No Iterations 2
time step continuity errors : sum local = 0.00704103, global = -0.000780396, cumulative = 0.0157958
smoothSolver:  Solving for omega, Initial residual = 0.000763056, Final residual = 3.25741e-05, No Iterations 3
smoothSolver:  Solving for k, Initial residual = 0.0123545, Final residual = 0.000977274, No Iterations 3
ExecutionTime = 0.79 s  ClockTime = 1 s

scalarTransport execute: age
smoothSolver:  Solving for age, Initial residual = 0.0252791, Final residual = 0.0021504, No Iterations 9

Time = 70

smoothSolver:  Solving for Ux, Initial residual = 0.0124279, Final residual = 0.000885566, No Iterations 4
smoothSolver:  Solving for Uy, Initial residual = 0.0106025, Final residual = 0.000649177, No Iterations 4
GAMG:  Solving for p, Initial residual = 0.0252204, Final residual = 0.00178871, No Iterations 2
time step continuity errors : sum local = 0.00756427, global = -0.000781503, cumulative = 0.0150143
smoothSolver:  Solving for omega, Initial residual = 0.000724498, Final residual = 7.17864e-05, No Iterations 2
smoothSolver:  Solving for k, Initial residual = 0.0122072, Final residual = 0.000970098, No Iterations 3
ExecutionTime = 0.8 s  ClockTime = 1 s

scalarTransport execute: age
smoothSolver:  Solving for age, Initial residual = 0.0250446, Final residual = 0.00247603, No Iterations 8

Time = 71

smoothSolver:  Solving for Ux, Initial residual = 0.0123672, Final residual = 0.000877709, No Iterations 4
smoothSolver:  Solving for Uy, Initial residual = 0.0103377, Final residual = 0.000635156, No Iterations 4
GAMG:  Solving for p, Initial residual = 0.0245818, Final residual = 0.00181732, No Iterations 2
time step continuity errors : sum local = 0.00771752, global = -0.000814377, cumulative = 0.0141999
smoothSolver:  Solving for omega, Initial residual = 0.000718403, Final residual = 3.05579e-05, No Iterations 3
smoothSolver:  Solving for k, Initial residual = 0.0121699, Final residual = 0.000973759, No Iterations 3
ExecutionTime = 0.82 s  ClockTime = 1 s

scalarTransport execute: age
smoothSolver:  Solving for age, Initial residual = 0.0251511, Final residual = 0.00245283, No Iterations 8

Time = 72

smoothSolver:  Solving for Ux, Initial residual = 0.0122959, Final residual = 0.00086542, No Iterations 4
smoothSolver:  Solving for Uy, Initial residual = 0.0100862, Final residual = 0.000624348, No Iterations 4
GAMG:  Solving for p, Initial residual = 0.0238594, Final residual = 0.00180037, No Iterations 2
time step continuity errors : sum local = 0.00767318, global = -0.000832983, cumulative = 0.0133669
smoothSolver:  Solving for omega, Initial residual = 0.000672397, Final residual = 2.84668e-05, No Iterations 3
smoothSolver:  Solving for k, Initial residual = 0.0121434, Final residual = 0.000972007, No Iterations 3
ExecutionTime = 0.83 s  ClockTime = 1 s

scalarTransport execute: age
smoothSolver:  Solving for age, Initial residual = 0.0254347, Final residual = 0.00243026, No Iterations 8

Time = 73

smoothSolver:  Solving for Ux, Initial residual = 0.012192, Final residual = 0.000849227, No Iterations 4
smoothSolver:  Solving for Uy, Initial residual = 0.00976611, Final residual = 0.000609309, No Iterations 4
GAMG:  Solving for p, Initial residual = 0.0231375, Final residual = 0.00176195, No Iterations 2
time step continuity errors : sum local = 0.00753527, global = -0.000826509, cumulative = 0.0125404
smoothSolver:  Solving for omega, Initial residual = 0.000637427, Final residual = 2.68074e-05, No Iterations 3
smoothSolver:  Solving for k, Initial residual = 0.0120717, Final residual = 0.000966942, No Iterations 3
ExecutionTime = 0.84 s  ClockTime = 1 s

scalarTransport execute: age
smoothSolver:  Solving for age, Initial residual = 0.025273, Final residual = 0.0024271, No Iterations 8

Time = 74

smoothSolver:  Solving for Ux, Initial residual = 0.0119942, Final residual = 0.000822592, No Iterations 4
smoothSolver:  Solving for Uy, Initial residual = 0.00944701, Final residual = 0.000586499, No Iterations 4
GAMG:  Solving for p, Initial residual = 0.0225179, Final residual = 0.00170791, No Iterations 2
time step continuity errors : sum local = 0.00732913, global = -0.000797665, cumulative = 0.0117427
smoothSolver:  Solving for omega, Initial residual = 0.000595546, Final residual = 2.50345e-05, No Iterations 3
smoothSolver:  Solving for k, Initial residual = 0.0119001, Final residual = 0.000945301, No Iterations 3
ExecutionTime = 0.85 s  ClockTime = 1 s

scalarTransport execute: age
smoothSolver:  Solving for age, Initial residual = 0.0246045, Final residual = 0.00241351, No Iterations 8

Time = 75

smoothSolver:  Solving for Ux, Initial residual = 0.0117626, Final residual = 0.000790259, No Iterations 4
smoothSolver:  Solving for Uy, Initial residual = 0.00913156, Final residual = 0.000554115, No Iterations 4
GAMG:  Solving for p, Initial residual = 0.0219423, Final residual = 0.00164183, No Iterations 2
time step continuity errors : sum local = 0.0070645, global = -0.000753554, cumulative = 0.0109892
smoothSolver:  Solving for omega, Initial residual = 0.000555764, Final residual = 2.34039e-05, No Iterations 3
smoothSolver:  Solving for k, Initial residual = 0.0115868, Final residual = 0.000903022, No Iterations 3
ExecutionTime = 0.86 s  ClockTime = 1 s

scalarTransport execute: age
smoothSolver:  Solving for age, Initial residual = 0.0237021, Final residual = 0.00202004, No Iterations 9

Time = 76

smoothSolver:  Solving for Ux, Initial residual = 0.0115227, Final residual = 0.000764303, No Iterations 4
smoothSolver:  Solving for Uy, Initial residual = 0.00884563, Final residual = 0.000522978, No Iterations 4
GAMG:  Solving for p, Initial residual = 0.0213591, Final residual = 0.00161903, No Iterations 2
time step continuity errors : sum local = 0.00697539, global = -0.00069223, cumulative = 0.0102969
smoothSolver:  Solving for omega, Initial residual = 0.000520726, Final residual = 2.21e-05, No Iterations 3
smoothSolver:  Solving for k, Initial residual = 0.0110811, Final residual = 0.00084409, No Iterations 3
ExecutionTime = 0.87 s  ClockTime = 1 s

scalarTransport execute: age
smoothSolver:  Solving for age, Initial residual = 0.0228229, Final residual = 0.00196748, No Iterations 9

Time = 77

smoothSolver:  Solving for Ux, Initial residual = 0.0112427, Final residual = 0.000746406, No Iterations 4
smoothSolver:  Solving for Uy, Initial residual = 0.00862265, Final residual = 0.000508597, No Iterations 4
GAMG:  Solving for p, Initial residual = 0.0206509, Final residual = 0.00163655, No Iterations 2
time step continuity errors : sum local = 0.00705373, global = -0.000610947, cumulative = 0.00968599
smoothSolver:  Solving for omega, Initial residual = 0.000505805, Final residual = 2.16323e-05, No Iterations 3
smoothSolver:  Solving for k, Initial residual = 0.0105135, Final residual = 0.000784407, No Iterations 3
ExecutionTime = 0.88 s  ClockTime = 1 s

scalarTransport execute: age
smoothSolver:  Solving for age, Initial residual = 0.0223555, Final residual = 0.00193155, No Iterations 9

Time = 78

smoothSolver:  Solving for Ux, Initial residual = 0.010961, Final residual = 0.000728361, No Iterations 4
smoothSolver:  Solving for Uy, Initial residual = 0.00852826, Final residual = 0.000506714, No Iterations 4
GAMG:  Solving for p, Initial residual = 0.0199335, Final residual = 0.00166965, No Iterations 2
time step continuity errors : sum local = 0.00718913, global = -0.000511335, cumulative = 0.00917465
smoothSolver:  Solving for omega, Initial residual = 0.000507526, Final residual = 5.06068e-05, No Iterations 2
smoothSolver:  Solving for k, Initial residual = 0.00995463, Final residual = 0.000737496, No Iterations 3
ExecutionTime = 0.89 s  ClockTime = 1 s

scalarTransport execute: age
smoothSolver:  Solving for age, Initial residual = 0.0221872, Final residual = 0.00192389, No Iterations 9

Time = 79

smoothSolver:  Solving for Ux, Initial residual = 0.0106607, Final residual = 0.000709314, No Iterations 4
smoothSolver:  Solving for Uy, Initial residual = 0.00847648, Final residual = 0.000505855, No Iterations 4
GAMG:  Solving for p, Initial residual = 0.0194015, Final residual = 0.00179239, No Iterations 2
time step continuity errors : sum local = 0.00769712, global = -0.000437655, cumulative = 0.008737
smoothSolver:  Solving for omega, Initial residual = 0.000520391, Final residual = 2.26838e-05, No Iterations 3
smoothSolver:  Solving for k, Initial residual = 0.00947701, Final residual = 0.000711919, No Iterations 3
ExecutionTime = 0.9 s  ClockTime = 1 s

scalarTransport execute: age
smoothSolver:  Solving for age, Initial residual = 0.0221737, Final residual = 0.00197462, No Iterations 9

Time = 80

smoothSolver:  Solving for Ux, Initial residual = 0.0103299, Final residual = 0.000695964, No Iterations 4
smoothSolver:  Solving for Uy, Initial residual = 0.0083681, Final residual = 0.000497199, No Iterations 4
GAMG:  Solving for p, Initial residual = 0.0191557, Final residual = 0.00182782, No Iterations 2
time step continuity errors : sum local = 0.00780783, global = -0.000322545, cumulative = 0.00841445
smoothSolver:  Solving for omega, Initial residual = 0.000513878, Final residual = 2.18719e-05, No Iterations 3
smoothSolver:  Solving for k, Initial residual = 0.00909935, Final residual = 0.000703138, No Iterations 3
ExecutionTime = 0.91 s  ClockTime = 1 s

scalarTransport execute: age
smoothSolver:  Solving for age, Initial residual = 0.0221408, Final residual = 0.00211252, No Iterations 9

Time = 81

smoothSolver:  Solving for Ux, Initial residual = 0.00995351, Final residual = 0.000679764, No Iterations 4
smoothSolver:  Solving for Uy, Initial residual = 0.00822938, Final residual = 0.000478844, No Iterations 4
GAMG:  Solving for p, Initial residual = 0.0189431, Final residual = 0.00188405, No Iterations 2
time step continuity errors : sum local = 0.00798964, global = -0.000185227, cumulative = 0.00822923
smoothSolver:  Solving for omega, Initial residual = 0.000517795, Final residual = 5.10857e-05, No Iterations 2
smoothSolver:  Solving for k, Initial residual = 0.00887108, Final residual = 0.000712784, No Iterations 3
ExecutionTime = 0.92 s  ClockTime = 1 s

scalarTransport execute: age
smoothSolver:  Solving for age, Initial residual = 0.0220948, Final residual = 0.00213914, No Iterations 9

Time = 82

smoothSolver:  Solving for Ux, Initial residual = 0.00961475, Final residual = 0.000661747, No Iterations 4
smoothSolver:  Solving for Uy, Initial residual = 0.0080149, Final residual = 0.000458886, No Iterations 4
GAMG:  Solving for p, Initial residual = 0.0188854, Final residual = 0.000769427, No Iterations 3
time step continuity errors : sum local = 0.00323292, global = 3.43076e-05, cumulative = 0.00826353
smoothSolver:  Solving for omega, Initial residual = 0.000547526, Final residual = 5.37629e-05, No Iterations 2
smoothSolver:  Solving for k, Initial residual = 0.00871333, Final residual = 0.000727985, No Iterations 3
ExecutionTime = 0.93 s  ClockTime = 1 s

scalarTransport execute: age
smoothSolver:  Solving for age, Initial residual = 0.021893, Final residual = 0.00189795, No Iterations 9

Time = 83

smoothSolver:  Solving for Ux, Initial residual = 0.00929783, Final residual = 0.000631939, No Iterations 4
smoothSolver:  Solving for Uy, Initial residual = 0.00777262, Final residual = 0.000439048, No Iterations 4
GAMG:  Solving for p, Initial residual = 0.0182075, Final residual = 0.00174675, No Iterations 2
time step continuity errors : sum local = 0.00725676, global = 0.00013755, cumulative = 0.00840108
smoothSolver:  Solving for omega, Initial residual = 0.00054943, Final residual = 2.31968e-05, No Iterations 3
smoothSolver:  Solving for k, Initial residual = 0.00873584, Final residual = 0.00075535, No Iterations 3
ExecutionTime = 0.94 s  ClockTime = 1 s

scalarTransport execute: age
smoothSolver:  Solving for age, Initial residual = 0.0222864, Final residual = 0.0020352, No Iterations 8

Time = 84

smoothSolver:  Solving for Ux, Initial residual = 0.00900307, Final residual = 0.000635441, No Iterations 4
smoothSolver:  Solving for Uy, Initial residual = 0.00745765, Final residual = 0.000432677, No Iterations 4
GAMG:  Solving for p, Initial residual = 0.0188754, Final residual = 0.000568595, No Iterations 3
time step continuity errors : sum local = 0.00233745, global = 0.000279626, cumulative = 0.00868071
smoothSolver:  Solving for omega, Initial residual = 0.000513121, Final residual = 2.14744e-05, No Iterations 3
smoothSolver:  Solving for k, Initial residual = 0.00873074, Final residual = 0.000770567, No Iterations 3
ExecutionTime = 0.95 s  ClockTime = 1 s

scalarTransport execute: age
smoothSolver:  Solving for age, Initial residual = 0.0229096, Final residual = 0.00211026, No Iterations 8

Time = 85

smoothSolver:  Solving for Ux, Initial residual = 0.00870368, Final residual = 0.000595498, No Iterations 4
smoothSolver:  Solving for Uy, Initial residual = 0.00711792, Final residual = 0.000414355, No Iterations 4
GAMG:  Solving for p, Initial residual = 0.0176598, Final residual = 0.00159471, No Iterations 2
time step continuity errors : sum local = 0.00645821, global = 0.000378702, cumulative = 0.00905941
smoothSolver:  Solving for omega, Initial residual = 0.000489164, Final residual = 2.07647e-05, No Iterations 3
smoothSolver:  Solving for k, Initial residual = 0.00888714, Final residual = 0.000798359, No Iterations 3
ExecutionTime = 0.96 s  ClockTime = 1 s

scalarTransport execute: age
smoothSolver:  Solving for age, Initial residual = 0.0230114, Final residual = 0.00207918, No Iterations 8

Time = 86

smoothSolver:  Solving for Ux, Initial residual = 0.00842381, Final residual = 0.000597272, No Iterations 4
smoothSolver:  Solving for Uy, Initial residual = 0.00678289, Final residual = 0.000410474, No Iterations 4
GAMG:  Solving for p, Initial residual = 0.0182591, Final residual = 0.000668857, No Iterations 3
time step continuity errors : sum local = 0.002684, global = 8.13779e-05, cumulative = 0.00914079
smoothSolver:  Solving for omega, Initial residual = 0.0005089, Final residual = 4.71453e-05, No Iterations 2
smoothSolver:  Solving for k, Initial residual = 0.00897027, Final residual = 0.00081131, No Iterations 3
ExecutionTime = 0.98 s  ClockTime = 1 s

scalarTransport execute: age
smoothSolver:  Solving for age, Initial residual = 0.0232149, Final residual = 0.00214292, No Iterations 8

Time = 87

smoothSolver:  Solving for Ux, Initial residual = 0.00820373, Final residual = 0.000562158, No Iterations 4
smoothSolver:  Solving for Uy, Initial residual = 0.00673793, Final residual = 0.000402721, No Iterations 4
GAMG:  Solving for p, Initial residual = 0.0169384, Final residual = 0.00137173, No Iterations 2
time step continuity errors : sum local = 0.00540273, global = 0.000181777, cumulative = 0.00932257
smoothSolver:  Solving for omega, Initial residual = 0.000500836, Final residual = 4.8446e-05, No Iterations 2
smoothSolver:  Solving for k, Initial residual = 0.00892181, Final residual = 0.000815341, No Iterations 3
ExecutionTime = 0.99 s  ClockTime = 1 s

scalarTransport execute: age
smoothSolver:  Solving for age, Initial residual = 0.0227335, Final residual = 0.0020656, No Iterations 8

Time = 88

smoothSolver:  Solving for Ux, Initial residual = 0.00800507, Final residual = 0.000568262, No Iterations 4
smoothSolver:  Solving for Uy, Initial residual = 0.0062759, Final residual = 0.000388496, No Iterations 4
GAMG:  Solving for p, Initial residual = 0.0171079, Final residual = 0.00164492, No Iterations 2
time step continuity errors : sum local = 0.00644218, global = 0.000317515, cumulative = 0.00964008
smoothSolver:  Solving for omega, Initial residual = 0.00045015, Final residual = 2.01364e-05, No Iterations 3
smoothSolver:  Solving for k, Initial residual = 0.00868319, Final residual = 0.000789866, No Iterations 3
ExecutionTime = 1 s  ClockTime = 1 s

scalarTransport execute: age
smoothSolver:  Solving for age, Initial residual = 0.0224715, Final residual = 0.00211273, No Iterations 8

Time = 89

smoothSolver:  Solving for Ux, Initial residual = 0.00785471, Final residual = 0.000556688, No Iterations 4
smoothSolver:  Solving for Uy, Initial residual = 0.00597849, Final residual = 0.00036965, No Iterations 4
GAMG:  Solving for p, Initial residual = 0.0162964, Final residual = 0.00135185, No Iterations 2
time step continuity errors : sum local = 0.00526704, global = 0.00040218, cumulative = 0.0100423
smoothSolver:  Solving for omega, Initial residual = 0.000392468, Final residual = 1.84676e-05, No Iterations 3
smoothSolver:  Solving for k, Initial residual = 0.00830063, Final residual = 0.000744593, No Iterations 3
ExecutionTime = 1.01 s  ClockTime = 1 s

scalarTransport execute: age
smoothSolver:  Solving for age, Initial residual = 0.0220618, Final residual = 0.00191758, No Iterations 9

Time = 90

smoothSolver:  Solving for Ux, Initial residual = 0.0077051, Final residual = 0.000553786, No Iterations 4
smoothSolver:  Solving for Uy, Initial residual = 0.00589247, Final residual = 0.000363968, No Iterations 4
GAMG:  Solving for p, Initial residual = 0.0151764, Final residual = 0.00112034, No Iterations 2
time step continuity errors : sum local = 0.00434538, global = 0.000389256, cumulative = 0.0104315
smoothSolver:  Solving for omega, Initial residual = 0.000374549, Final residual = 1.76574e-05, No Iterations 3
smoothSolver:  Solving for k, Initial residual = 0.00789449, Final residual = 0.000698933, No Iterations 3
ExecutionTime = 1.02 s  ClockTime = 1 s

scalarTransport execute: age
smoothSolver:  Solving for age, Initial residual = 0.0213651, Final residual = 0.00194909, No Iterations 9

Time = 91

smoothSolver:  Solving for Ux, Initial residual = 0.00760339, Final residual = 0.000559689, No Iterations 4
smoothSolver:  Solving for Uy, Initial residual = 0.00585646, Final residual = 0.000362545, No Iterations 4
GAMG:  Solving for p, Initial residual = 0.0144013, Final residual = 0.00116107, No Iterations 2
time step continuity errors : sum local = 0.00448969, global = 0.000339431, cumulative = 0.0107709
smoothSolver:  Solving for omega, Initial residual = 0.000356015, Final residual = 1.71431e-05, No Iterations 3
smoothSolver:  Solving for k, Initial residual = 0.00756958, Final residual = 0.000656976, No Iterations 3
ExecutionTime = 1.03 s  ClockTime = 1 s

scalarTransport execute: age
smoothSolver:  Solving for age, Initial residual = 0.0201656, Final residual = 0.00181465, No Iterations 9

Time = 92

smoothSolver:  Solving for Ux, Initial residual = 0.00747086, Final residual = 0.00056561, No Iterations 4
smoothSolver:  Solving for Uy, Initial residual = 0.00572254, Final residual = 0.000356857, No Iterations 4
GAMG:  Solving for p, Initial residual = 0.0139073, Final residual = 0.00122371, No Iterations 2
time step continuity errors : sum local = 0.00472605, global = 0.000278967, cumulative = 0.0110499
smoothSolver:  Solving for omega, Initial residual = 0.000342461, Final residual = 1.66365e-05, No Iterations 3
smoothSolver:  Solving for k, Initial residual = 0.00733431, Final residual = 0.000627749, No Iterations 3
ExecutionTime = 1.04 s  ClockTime = 1 s

scalarTransport execute: age
smoothSolver:  Solving for age, Initial residual = 0.0191503, Final residual = 0.00189787, No Iterations 8

Time = 93

smoothSolver:  Solving for Ux, Initial residual = 0.0072709, Final residual = 0.000566255, No Iterations 4
smoothSolver:  Solving for Uy, Initial residual = 0.00551983, Final residual = 0.000345613, No Iterations 4
GAMG:  Solving for p, Initial residual = 0.0133775, Final residual = 0.00129191, No Iterations 2
time step continuity errors : sum local = 0.00498909, global = 0.000221644, cumulative = 0.0112716
smoothSolver:  Solving for omega, Initial residual = 0.000330128, Final residual = 1.61864e-05, No Iterations 3
smoothSolver:  Solving for k, Initial residual = 0.00716279, Final residual = 0.000607833, No Iterations 3
ExecutionTime = 1.05 s  ClockTime = 1 s

scalarTransport execute: age
smoothSolver:  Solving for age, Initial residual = 0.0185419, Final residual = 0.00173074, No Iterations 8

Time = 94

smoothSolver:  Solving for Ux, Initial residual = 0.00704407, Final residual = 0.000560348, No Iterations 4
smoothSolver:  Solving for Uy, Initial residual = 0.00527706, Final residual = 0.000330645, No Iterations 4
GAMG:  Solving for p, Initial residual = 0.0129257, Final residual = 0.00125465, No Iterations 2
time step continuity errors : sum local = 0.00484967, global = 0.000128671, cumulative = 0.0114002
smoothSolver:  Solving for omega, Initial residual = 0.000322046, Final residual = 1.57417e-05, No Iterations 3
smoothSolver:  Solving for k, Initial residual = 0.00698974, Final residual = 0.0005924, No Iterations 3
ExecutionTime = 1.06 s  ClockTime = 1 s

scalarTransport execute: age
smoothSolver:  Solving for age, Initial residual = 0.0180861, Final residual = 0.00162609, No Iterations 8

Time = 95

smoothSolver:  Solving for Ux, Initial residual = 0.00685598, Final residual = 0.000548899, No Iterations 4
smoothSolver:  Solving for Uy, Initial residual = 0.00504159, Final residual = 0.000317526, No Iterations 4
GAMG:  Solving for p, Initial residual = 0.01254, Final residual = 0.0012256, No Iterations 2
time step continuity errors : sum local = 0.00474351, global = 1.08374e-05, cumulative = 0.0114111
smoothSolver:  Solving for omega, Initial residual = 0.000319078, Final residual = 1.53137e-05, No Iterations 3
smoothSolver:  Solving for k, Initial residual = 0.00679657, Final residual = 0.000582618, No Iterations 3
ExecutionTime = 1.07 s  ClockTime = 1 s

scalarTransport execute: age
smoothSolver:  Solving for age, Initial residual = 0.017744, Final residual = 0.00154049, No Iterations 8

Time = 96

smoothSolver:  Solving for Ux, Initial residual = 0.00664013, Final residual = 0.000534074, No Iterations 4
smoothSolver:  Solving for Uy, Initial residual = 0.00484777, Final residual = 0.000313582, No Iterations 4
GAMG:  Solving for p, Initial residual = 0.0123395, Final residual = 0.00123048, No Iterations 2
time step continuity errors : sum local = 0.00476647, global = -0.000120287, cumulative = 0.0112908
[...]
smoothSolver:  Solving for Uy, Initial residual = 7.38273e-07, Final residual = 6.87822e-08, No Iterations 4
GAMG:  Solving for p, Initial residual = 1.50656e-06, Final residual = 5.79844e-08, No Iterations 3
time step continuity errors : sum local = 2.13695e-07, global = -4.90747e-10, cumulative = 0.00920706
smoothSolver:  Solving for omega, Initial residual = 4.49315e-08, Final residual = 6.42605e-09, No Iterations 2
smoothSolver:  Solving for k, Initial residual = 9.06231e-07, Final residual = 8.42256e-08, No Iterations 3
ExecutionTime = 6.06 s  ClockTime = 6 s

scalarTransport execute: age
smoothSolver:  Solving for age, Initial residual = 0.000407628, Final residual = 3.7349e-05, No Iterations 14

Time = 540

smoothSolver:  Solving for Ux, Initial residual = 7.26486e-07, Final residual = 6.68773e-08, No Iterations 4
smoothSolver:  Solving for Uy, Initial residual = 7.18351e-07, Final residual = 6.42833e-08, No Iterations 4
GAMG:  Solving for p, Initial residual = 1.45633e-06, Final residual = 5.41709e-08, No Iterations 3
time step continuity errors : sum local = 1.99641e-07, global = 1.1077e-09, cumulative = 0.00920706
smoothSolver:  Solving for omega, Initial residual = 4.14709e-08, Final residual = 6.06271e-09, No Iterations 2
smoothSolver:  Solving for k, Initial residual = 8.78939e-07, Final residual = 8.12468e-08, No Iterations 3
ExecutionTime = 6.07 s  ClockTime = 6 s

scalarTransport execute: age
smoothSolver:  Solving for age, Initial residual = 0.000406847, Final residual = 3.72669e-05, No Iterations 14

Time = 541

smoothSolver:  Solving for Ux, Initial residual = 7.08465e-07, Final residual = 6.66517e-08, No Iterations 4
smoothSolver:  Solving for Uy, Initial residual = 7.01393e-07, Final residual = 6.29795e-08, No Iterations 4
GAMG:  Solving for p, Initial residual = 1.43473e-06, Final residual = 6.11967e-08, No Iterations 3
time step continuity errors : sum local = 2.25534e-07, global = 2.19857e-09, cumulative = 0.00920706
smoothSolver:  Solving for omega, Initial residual = 4.03587e-08, Final residual = 5.99716e-09, No Iterations 2
smoothSolver:  Solving for k, Initial residual = 8.46568e-07, Final residual = 7.82941e-08, No Iterations 3
ExecutionTime = 6.08 s  ClockTime = 6 s

scalarTransport execute: age
smoothSolver:  Solving for age, Initial residual = 0.00040602, Final residual = 3.71809e-05, No Iterations 14

Time = 542

smoothSolver:  Solving for Ux, Initial residual = 6.95478e-07, Final residual = 6.62513e-08, No Iterations 4
smoothSolver:  Solving for Uy, Initial residual = 6.94022e-07, Final residual = 6.30419e-08, No Iterations 4
GAMG:  Solving for p, Initial residual = 1.41364e-06, Final residual = 6.06797e-08, No Iterations 3
time step continuity errors : sum local = 2.23628e-07, global = 2.24622e-09, cumulative = 0.00920707
smoothSolver:  Solving for omega, Initial residual = 4.11522e-08, Final residual = 6.1906e-09, No Iterations 2
smoothSolver:  Solving for k, Initial residual = 8.25018e-07, Final residual = 7.60093e-08, No Iterations 3
ExecutionTime = 6.09 s  ClockTime = 6 s

scalarTransport execute: age
smoothSolver:  Solving for age, Initial residual = 0.000405137, Final residual = 3.70919e-05, No Iterations 14

Time = 543

smoothSolver:  Solving for Ux, Initial residual = 6.87132e-07, Final residual = 6.51997e-08, No Iterations 4
smoothSolver:  Solving for Uy, Initial residual = 6.89054e-07, Final residual = 6.36023e-08, No Iterations 4
GAMG:  Solving for p, Initial residual = 1.38281e-06, Final residual = 5.2794e-08, No Iterations 3
time step continuity errors : sum local = 1.94566e-07, global = 1.12213e-09, cumulative = 0.00920707
smoothSolver:  Solving for omega, Initial residual = 4.16278e-08, Final residual = 6.23402e-09, No Iterations 2
smoothSolver:  Solving for k, Initial residual = 8.21757e-07, Final residual = 7.52191e-08, No Iterations 3
ExecutionTime = 6.1 s  ClockTime = 6 s

scalarTransport execute: age
smoothSolver:  Solving for age, Initial residual = 0.000404161, Final residual = 3.70015e-05, No Iterations 14

Time = 544

smoothSolver:  Solving for Ux, Initial residual = 6.77578e-07, Final residual = 6.38698e-08, No Iterations 4
smoothSolver:  Solving for Uy, Initial residual = 6.75872e-07, Final residual = 6.34195e-08, No Iterations 4
GAMG:  Solving for p, Initial residual = 1.35142e-06, Final residual = 1.28873e-07, No Iterations 2
time step continuity errors : sum local = 4.74946e-07, global = 7.78229e-10, cumulative = 0.00920707
smoothSolver:  Solving for omega, Initial residual = 4.16192e-08, Final residual = 6.2013e-09, No Iterations 2
smoothSolver:  Solving for k, Initial residual = 8.23566e-07, Final residual = 7.64423e-08, No Iterations 3
ExecutionTime = 6.11 s  ClockTime = 6 s

scalarTransport execute: age
smoothSolver:  Solving for age, Initial residual = 0.000403152, Final residual = 3.6913e-05, No Iterations 14

Time = 545

smoothSolver:  Solving for Ux, Initial residual = 6.66028e-07, Final residual = 6.30005e-08, No Iterations 4
smoothSolver:  Solving for Uy, Initial residual = 6.59704e-07, Final residual = 6.19683e-08, No Iterations 4
GAMG:  Solving for p, Initial residual = 1.3592e-06, Final residual = 5.03213e-08, No Iterations 3
time step continuity errors : sum local = 1.85453e-07, global = -1.84834e-09, cumulative = 0.00920707
smoothSolver:  Solving for omega, Initial residual = 4.08621e-08, Final residual = 5.86382e-09, No Iterations 2
smoothSolver:  Solving for k, Initial residual = 8.16365e-07, Final residual = 7.56029e-08, No Iterations 3
ExecutionTime = 6.12 s  ClockTime = 6 s

scalarTransport execute: age
smoothSolver:  Solving for age, Initial residual = 0.000402136, Final residual = 3.6826e-05, No Iterations 14

Time = 546

smoothSolver:  Solving for Ux, Initial residual = 6.54677e-07, Final residual = 6.01012e-08, No Iterations 4
smoothSolver:  Solving for Uy, Initial residual = 6.4093e-07, Final residual = 5.78006e-08, No Iterations 4
GAMG:  Solving for p, Initial residual = 1.30588e-06, Final residual = 1.30065e-07, No Iterations 2
time step continuity errors : sum local = 4.79338e-07, global = -3.18741e-09, cumulative = 0.00920706
smoothSolver:  Solving for omega, Initial residual = 3.75786e-08, Final residual = 5.55217e-09, No Iterations 2
smoothSolver:  Solving for k, Initial residual = 7.9995e-07, Final residual = 7.38361e-08, No Iterations 3
ExecutionTime = 6.14 s  ClockTime = 6 s

scalarTransport execute: age
smoothSolver:  Solving for age, Initial residual = 0.000401139, Final residual = 3.67444e-05, No Iterations 14

Time = 547

smoothSolver:  Solving for Ux, Initial residual = 6.38862e-07, Final residual = 6.01946e-08, No Iterations 4
smoothSolver:  Solving for Uy, Initial residual = 6.23009e-07, Final residual = 5.63504e-08, No Iterations 4
GAMG:  Solving for p, Initial residual = 1.34342e-06, Final residual = 5.56418e-08, No Iterations 3
time step continuity errors : sum local = 2.05061e-07, global = -4.02018e-09, cumulative = 0.00920706
smoothSolver:  Solving for omega, Initial residual = 3.68611e-08, Final residual = 5.35281e-09, No Iterations 2
smoothSolver:  Solving for k, Initial residual = 7.67642e-07, Final residual = 7.12045e-08, No Iterations 3
ExecutionTime = 6.15 s  ClockTime = 6 s

scalarTransport execute: age
smoothSolver:  Solving for age, Initial residual = 0.000400138, Final residual = 3.66675e-05, No Iterations 14

Time = 548

smoothSolver:  Solving for Ux, Initial residual = 6.26222e-07, Final residual = 5.90448e-08, No Iterations 4
smoothSolver:  Solving for Uy, Initial residual = 6.14556e-07, Final residual = 5.55567e-08, No Iterations 4
GAMG:  Solving for p, Initial residual = 1.25759e-06, Final residual = 5.41828e-08, No Iterations 3
time step continuity errors : sum local = 1.99684e-07, global = -4.8949e-09, cumulative = 0.00920705
smoothSolver:  Solving for omega, Initial residual = 3.62686e-08, Final residual = 5.42224e-09, No Iterations 2
smoothSolver:  Solving for k, Initial residual = 7.40808e-07, Final residual = 6.89e-08, No Iterations 3
ExecutionTime = 6.16 s  ClockTime = 6 s

scalarTransport execute: age
smoothSolver:  Solving for age, Initial residual = 0.000399183, Final residual = 3.65944e-05, No Iterations 14

Time = 549

smoothSolver:  Solving for Ux, Initial residual = 6.18227e-07, Final residual = 5.89016e-08, No Iterations 4
smoothSolver:  Solving for Uy, Initial residual = 6.1889e-07, Final residual = 5.71402e-08, No Iterations 4
GAMG:  Solving for p, Initial residual = 1.24653e-06, Final residual = 5.23131e-08, No Iterations 3
time step continuity errors : sum local = 1.92794e-07, global = -4.66932e-09, cumulative = 0.00920705
smoothSolver:  Solving for omega, Initial residual = 3.74267e-08, Final residual = 5.54643e-09, No Iterations 2
smoothSolver:  Solving for k, Initial residual = 7.33629e-07, Final residual = 6.75344e-08, No Iterations 3
ExecutionTime = 6.17 s  ClockTime = 6 s

scalarTransport execute: age
smoothSolver:  Solving for age, Initial residual = 0.000398267, Final residual = 3.65239e-05, No Iterations 14

Time = 550

smoothSolver:  Solving for Ux, Initial residual = 6.10844e-07, Final residual = 5.76987e-08, No Iterations 4
smoothSolver:  Solving for Uy, Initial residual = 6.14008e-07, Final residual = 5.76786e-08, No Iterations 4
GAMG:  Solving for p, Initial residual = 1.21685e-06, Final residual = 1.20961e-07, No Iterations 2
time step continuity errors : sum local = 4.45789e-07, global = -4.59428e-09, cumulative = 0.00920704
smoothSolver:  Solving for omega, Initial residual = 3.72274e-08, Final residual = 5.58932e-09, No Iterations 2
smoothSolver:  Solving for k, Initial residual = 7.34381e-07, Final residual = 6.85478e-08, No Iterations 3
ExecutionTime = 6.18 s  ClockTime = 6 s

scalarTransport execute: age
smoothSolver:  Solving for age, Initial residual = 0.000397402, Final residual = 3.6453e-05, No Iterations 14

Time = 551

smoothSolver:  Solving for Ux, Initial residual = 5.98676e-07, Final residual = 5.71634e-08, No Iterations 4
smoothSolver:  Solving for Uy, Initial residual = 6.02094e-07, Final residual = 5.69866e-08, No Iterations 4
GAMG:  Solving for p, Initial residual = 1.22104e-06, Final residual = 4.72963e-08, No Iterations 3
time step continuity errors : sum local = 1.74305e-07, global = -2.01205e-09, cumulative = 0.00920704
smoothSolver:  Solving for omega, Initial residual = 3.71425e-08, Final residual = 5.32721e-09, No Iterations 2
smoothSolver:  Solving for k, Initial residual = 7.3238e-07, Final residual = 6.80993e-08, No Iterations 3
ExecutionTime = 6.19 s  ClockTime = 6 s

scalarTransport execute: age
smoothSolver:  Solving for age, Initial residual = 0.000396612, Final residual = 3.63817e-05, No Iterations 14

Time = 552

smoothSolver:  Solving for Ux, Initial residual = 5.83829e-07, Final residual = 5.4048e-08, No Iterations 4
smoothSolver:  Solving for Uy, Initial residual = 5.84524e-07, Final residual = 5.31444e-08, No Iterations 4
GAMG:  Solving for p, Initial residual = 1.16819e-06, Final residual = 1.15556e-07, No Iterations 2
time step continuity errors : sum local = 4.25868e-07, global = -9.3959e-10, cumulative = 0.00920704
smoothSolver:  Solving for omega, Initial residual = 3.44693e-08, Final residual = 5.0776e-09, No Iterations 2
smoothSolver:  Solving for k, Initial residual = 7.23135e-07, Final residual = 6.70418e-08, No Iterations 3
ExecutionTime = 6.2 s  ClockTime = 6 s

scalarTransport execute: age
smoothSolver:  Solving for age, Initial residual = 0.000395844, Final residual = 3.63059e-05, No Iterations 14

Time = 553

smoothSolver:  Solving for Ux, Initial residual = 5.71545e-07, Final residual = 5.3988e-08, No Iterations 4
smoothSolver:  Solving for Uy, Initial residual = 5.67097e-07, Final residual = 5.14087e-08, No Iterations 4
GAMG:  Solving for p, Initial residual = 1.2043e-06, Final residual = 4.86429e-08, No Iterations 3
time step continuity errors : sum local = 1.79268e-07, global = 2.45761e-10, cumulative = 0.00920704
smoothSolver:  Solving for omega, Initial residual = 3.31453e-08, Final residual = 4.78637e-09, No Iterations 2
smoothSolver:  Solving for k, Initial residual = 6.96701e-07, Final residual = 6.4314e-08, No Iterations 3
ExecutionTime = 6.21 s  ClockTime = 6 s

scalarTransport execute: age
smoothSolver:  Solving for age, Initial residual = 0.000395092, Final residual = 3.62272e-05, No Iterations 14

Time = 554

smoothSolver:  Solving for Ux, Initial residual = 5.59853e-07, Final residual = 5.26301e-08, No Iterations 4
smoothSolver:  Solving for Uy, Initial residual = 5.53157e-07, Final residual = 4.94499e-08, No Iterations 4
GAMG:  Solving for p, Initial residual = 1.12933e-06, Final residual = 4.79302e-08, No Iterations 3
time step continuity errors : sum local = 1.76641e-07, global = 1.39933e-09, cumulative = 0.00920704
smoothSolver:  Solving for omega, Initial residual = 3.22103e-08, Final residual = 4.81571e-09, No Iterations 2
smoothSolver:  Solving for k, Initial residual = 6.69776e-07, Final residual = 6.19778e-08, No Iterations 3
ExecutionTime = 6.23 s  ClockTime = 6 s

scalarTransport execute: age
smoothSolver:  Solving for age, Initial residual = 0.000394304, Final residual = 3.61452e-05, No Iterations 14

Time = 555

smoothSolver:  Solving for Ux, Initial residual = 5.51548e-07, Final residual = 5.26786e-08, No Iterations 4
smoothSolver:  Solving for Uy, Initial residual = 5.51822e-07, Final residual = 5.03898e-08, No Iterations 4
GAMG:  Solving for p, Initial residual = 1.12043e-06, Final residual = 4.79844e-08, No Iterations 3
time step continuity errors : sum local = 1.76841e-07, global = 1.703e-09, cumulative = 0.00920704
smoothSolver:  Solving for omega, Initial residual = 3.31796e-08, Final residual = 4.97624e-09, No Iterations 2
smoothSolver:  Solving for k, Initial residual = 6.56679e-07, Final residual = 6.0473e-08, No Iterations 3
ExecutionTime = 6.24 s  ClockTime = 6 s

scalarTransport execute: age
smoothSolver:  Solving for age, Initial residual = 0.00039346, Final residual = 3.60612e-05, No Iterations 14

Time = 556

smoothSolver:  Solving for Ux, Initial residual = 5.46346e-07, Final residual = 5.19495e-08, No Iterations 4
smoothSolver:  Solving for Uy, Initial residual = 5.4677e-07, Final residual = 5.08855e-08, No Iterations 4
GAMG:  Solving for p, Initial residual = 1.09428e-06, Final residual = 4.09931e-08, No Iterations 3
time step continuity errors : sum local = 1.51075e-07, global = 8.68608e-10, cumulative = 0.00920705
smoothSolver:  Solving for omega, Initial residual = 3.30975e-08, Final residual = 4.96997e-09, No Iterations 2
smoothSolver:  Solving for k, Initial residual = 6.55353e-07, Final residual = 6.03097e-08, No Iterations 3
ExecutionTime = 6.25 s  ClockTime = 6 s

scalarTransport execute: age
smoothSolver:  Solving for age, Initial residual = 0.000392565, Final residual = 3.59768e-05, No Iterations 14

Time = 557

smoothSolver:  Solving for Ux, Initial residual = 5.38437e-07, Final residual = 5.08128e-08, No Iterations 4
smoothSolver:  Solving for Uy, Initial residual = 5.35477e-07, Final residual = 5.01749e-08, No Iterations 4
GAMG:  Solving for p, Initial residual = 1.06813e-06, Final residual = 1.01368e-07, No Iterations 2
time step continuity errors : sum local = 3.73579e-07, global = 5.92323e-10, cumulative = 0.00920705
smoothSolver:  Solving for omega, Initial residual = 3.29413e-08, Final residual = 4.90458e-09, No Iterations 2
smoothSolver:  Solving for k, Initial residual = 6.57784e-07, Final residual = 6.10959e-08, No Iterations 3
ExecutionTime = 6.26 s  ClockTime = 6 s

scalarTransport execute: age
smoothSolver:  Solving for age, Initial residual = 0.000391651, Final residual = 3.58944e-05, No Iterations 14

Time = 558

smoothSolver:  Solving for Ux, Initial residual = 5.28284e-07, Final residual = 4.99818e-08, No Iterations 4
smoothSolver:  Solving for Uy, Initial residual = 5.20527e-07, Final residual = 4.8621e-08, No Iterations 4
GAMG:  Solving for p, Initial residual = 1.07461e-06, Final residual = 3.99942e-08, No Iterations 3
time step continuity errors : sum local = 1.47394e-07, global = -1.38101e-09, cumulative = 0.00920704
smoothSolver:  Solving for omega, Initial residual = 3.22023e-08, Final residual = 4.6195e-09, No Iterations 2
smoothSolver:  Solving for k, Initial residual = 6.48869e-07, Final residual = 6.02448e-08, No Iterations 3
ExecutionTime = 6.27 s  ClockTime = 6 s

scalarTransport execute: age
smoothSolver:  Solving for age, Initial residual = 0.000390737, Final residual = 3.58138e-05, No Iterations 14

Time = 559

smoothSolver:  Solving for Ux, Initial residual = 5.21148e-07, Final residual = 4.78501e-08, No Iterations 4
smoothSolver:  Solving for Uy, Initial residual = 5.07361e-07, Final residual = 4.55672e-08, No Iterations 4
GAMG:  Solving for p, Initial residual = 1.03689e-06, Final residual = 3.79276e-08, No Iterations 3
time step continuity errors : sum local = 1.39778e-07, global = -2.62368e-09, cumulative = 0.00920704
smoothSolver:  Solving for omega, Initial residual = 2.97339e-08, Final residual = 4.34782e-09, No Iterations 2
smoothSolver:  Solving for k, Initial residual = 6.29353e-07, Final residual = 5.82843e-08, No Iterations 3
ExecutionTime = 6.28 s  ClockTime = 6 s

scalarTransport execute: age
smoothSolver:  Solving for age, Initial residual = 0.000389831, Final residual = 3.57376e-05, No Iterations 14

Time = 560

smoothSolver:  Solving for Ux, Initial residual = 5.08431e-07, Final residual = 4.7857e-08, No Iterations 4
smoothSolver:  Solving for Uy, Initial residual = 4.96342e-07, Final residual = 4.47802e-08, No Iterations 4
GAMG:  Solving for p, Initial residual = 1.02147e-06, Final residual = 4.35878e-08, No Iterations 3
time step continuity errors : sum local = 1.60638e-07, global = -3.4901e-09, cumulative = 0.00920704
smoothSolver:  Solving for omega, Initial residual = 2.87285e-08, Final residual = 9.89812e-09, No Iterations 1
smoothSolver:  Solving for k, Initial residual = 6.11511e-07, Final residual = 5.67558e-08, No Iterations 3
ExecutionTime = 6.3 s  ClockTime = 6 s

scalarTransport execute: age
smoothSolver:  Solving for age, Initial residual = 0.000388941, Final residual = 3.5665e-05, No Iterations 14

Time = 561

smoothSolver:  Solving for Ux, Initial residual = 4.97925e-07, Final residual = 4.77889e-08, No Iterations 4
smoothSolver:  Solving for Uy, Initial residual = 4.94141e-07, Final residual = 4.52437e-08, No Iterations 4
GAMG:  Solving for p, Initial residual = 1.01054e-06, Final residual = 4.40468e-08, No Iterations 3
time step continuity errors : sum local = 1.62329e-07, global = -3.66843e-09, cumulative = 0.00920703
smoothSolver:  Solving for omega, Initial residual = 3.32373e-08, Final residual = 5.07074e-09, No Iterations 2
smoothSolver:  Solving for k, Initial residual = 5.94909e-07, Final residual = 5.54584e-08, No Iterations 3
ExecutionTime = 6.31 s  ClockTime = 6 s

scalarTransport execute: age
smoothSolver:  Solving for age, Initial residual = 0.000388094, Final residual = 3.55953e-05, No Iterations 14

Time = 562

smoothSolver:  Solving for Ux, Initial residual = 4.92568e-07, Final residual = 4.69464e-08, No Iterations 4
smoothSolver:  Solving for Uy, Initial residual = 4.94428e-07, Final residual = 4.60634e-08, No Iterations 4
GAMG:  Solving for p, Initial residual = 9.89603e-07, Final residual = 3.92072e-08, No Iterations 3
time step continuity errors : sum local = 1.44494e-07, global = -2.90152e-09, cumulative = 0.00920703
smoothSolver:  Solving for omega, Initial residual = 3.10026e-08, Final residual = 4.70468e-09, No Iterations 2
smoothSolver:  Solving for k, Initial residual = 5.87489e-07, Final residual = 5.42601e-08, No Iterations 3
ExecutionTime = 6.32 s  ClockTime = 6 s


SIMPLE solution converged in 562 iterations

scalarTransport execute: age
smoothSolver:  Solving for age, Initial residual = 0.00038727, Final residual = 3.55273e-05, No Iterations 14

End

