/*---------------------------------------------------------------------------*\
| =========                 |                                                 |
| \\      /  F ield         | OpenFOAM: The Open Source CFD Toolbox           |
|  \\    /   O peration     | Version:  v2012                                 |
|   \\  /    A nd           | Website:  www.openfoam.com                      |
|    \\/     M anipulation  |                                                 |
\*---------------------------------------------------------------------------*/
Build  : _7bdb509494-20201222 OPENFOAM=2012
Arch   : "LSB;label=32;scalar=64"
Exec   : foamToVTK
Date   : Feb 23 2023
Time   : 02:28:18
Host   : johnsDesktop
PID    : 18917
I/O    : uncollated
Case   : /home/john/of_runs/cases/0_54_445_6
nProcs : 1
trapFpe: Floating point exception trapping enabled (FOAM_SIGFPE).
fileModificationChecking : Monitoring run-time modified files using timeStampMaster (fileModificationSkew 5, maxFileModificationPolls 20)
allowSystemOperations : Allowing user-supplied system call operations

// * * * * * * * * * * * * * * * * * * * * * * * * * * * * * * * * * * * * * //
Create time

Initial memory 205800 kB
Create mesh for time = 0

VTK mesh topology: 0.03 s, 208844 kB
Time: 0
    volScalar    : age k nuTilda nut omega p
    volVector    : U
    Internal  : "VTK/0_54_445_6_0/internal.vtu"
    Boundary  : "VTK/0_54_445_6_0/boundary/inlet.vtp"
    Boundary  : "VTK/0_54_445_6_0/boundary/outlet.vtp"
    Boundary  : "VTK/0_54_445_6_0/boundary/walls.vtp"
    Boundary  : "VTK/0_54_445_6_0/boundary/baffle.vtp"
Wrote in 0.03 s, 212728 kB
Time: 562
    volScalar    : age k nut omega p
    volVector    : U
    Internal  : "VTK/0_54_445_6_562/internal.vtu"
    Boundary  : "VTK/0_54_445_6_562/boundary/inlet.vtp"
    Boundary  : "VTK/0_54_445_6_562/boundary/outlet.vtp"
    Boundary  : "VTK/0_54_445_6_562/boundary/walls.vtp"
    Boundary  : "VTK/0_54_445_6_562/boundary/baffle.vtp"
Wrote in 0.04 s, 213232 kB

End: 0.1 s, 214756 kB (peak)

