/*---------------------------------------------------------------------------*\
| =========                 |                                                 |
| \\      /  F ield         | OpenFOAM: The Open Source CFD Toolbox           |
|  \\    /   O peration     | Version:  v2012                                 |
|   \\  /    A nd           | Website:  www.openfoam.com                      |
|    \\/     M anipulation  |                                                 |
\*---------------------------------------------------------------------------*/
Build  : _7bdb509494-20201222 OPENFOAM=2012
Arch   : "LSB;label=32;scalar=64"
Exec   : simpleFoam
Date   : Feb 24 2023
Time   : 01:15:33
Host   : johnsDesktop
PID    : 20536
I/O    : uncollated
Case   : /home/john/of_runs/cases/dbl_0_55_3-00620_9
nProcs : 1
trapFpe: Floating point exception trapping enabled (FOAM_SIGFPE).
fileModificationChecking : Monitoring run-time modified files using timeStampMaster (fileModificationSkew 5, maxFileModificationPolls 20)
allowSystemOperations : Allowing user-supplied system call operations

// * * * * * * * * * * * * * * * * * * * * * * * * * * * * * * * * * * * * * //
Create time

Create mesh for time = 0


SIMPLE: convergence criteria
    field p	 tolerance 1e-06
    field U	 tolerance 1e-06
    field "(k|epsilon|omega|f|v2|age)"	 tolerance 1e-05

Reading field p

Reading field U

Reading/calculating face flux field phi

Selecting incompressible transport model Newtonian
Selecting turbulence model type RAS
Selecting RAS turbulence model kOmegaSST
Selecting patchDistMethod meshWave
RAS
{
    RASModel        kOmegaSST;
    turbulence      on;
    printCoeffs     on;
    alphaK1         0.85;
    alphaK2         1;
    alphaOmega1     0.5;
    alphaOmega2     0.856;
    gamma1          0.555556;
    gamma2          0.44;
    beta1           0.075;
    beta2           0.0828;
    betaStar        0.09;
    a1              0.31;
    b1              1;
    c1              10;
    F3              false;
    decayControl    false;
    kInf            0;
    omegaInf        0;
}

No MRF models present

No finite volume options present

Starting time loop

Selecting finite volume options type scalarSemiImplicitSource
    Source: unitySource
    - selecting all cells
    - selected 6508 cell(s) with volume 0.03145
Time = 1

smoothSolver:  Solving for Ux, Initial residual = 0, Final residual = 0, No Iterations 0
smoothSolver:  Solving for Uy, Initial residual = 1, Final residual = 0.0694053, No Iterations 2
GAMG:  Solving for p, Initial residual = 1, Final residual = 0.0747699, No Iterations 6
time step continuity errors : sum local = 0.00475484, global = -0.00122754, cumulative = -0.00122754
smoothSolver:  Solving for omega, Initial residual = 0.247981, Final residual = 0.011646, No Iterations 3
smoothSolver:  Solving for k, Initial residual = 1, Final residual = 0.0778712, No Iterations 3
ExecutionTime = 0.05 s  ClockTime = 0 s

scalarTransport execute: age
smoothSolver:  Solving for age, Initial residual = 1, Final residual = 0.0956137, No Iterations 6

Time = 2

smoothSolver:  Solving for Ux, Initial residual = 0.532936, Final residual = 0.0446873, No Iterations 6
smoothSolver:  Solving for Uy, Initial residual = 0.279293, Final residual = 0.0191367, No Iterations 6
GAMG:  Solving for p, Initial residual = 0.0535602, Final residual = 0.00513353, No Iterations 3
time step continuity errors : sum local = 0.0720919, global = 0.00702015, cumulative = 0.00579261
smoothSolver:  Solving for omega, Initial residual = 0.249978, Final residual = 0.0223442, No Iterations 3
smoothSolver:  Solving for k, Initial residual = 0.591784, Final residual = 0.0533015, No Iterations 4
ExecutionTime = 0.06 s  ClockTime = 0 s

scalarTransport execute: age
smoothSolver:  Solving for age, Initial residual = 0.602777, Final residual = 0.0558714, No Iterations 8

Time = 3

smoothSolver:  Solving for Ux, Initial residual = 0.178738, Final residual = 0.0172117, No Iterations 5
smoothSolver:  Solving for Uy, Initial residual = 0.104601, Final residual = 0.008948, No Iterations 5
GAMG:  Solving for p, Initial residual = 0.0540234, Final residual = 0.00468969, No Iterations 3
time step continuity errors : sum local = 0.028897, global = 0.00175425, cumulative = 0.00754686
smoothSolver:  Solving for omega, Initial residual = 0.239544, Final residual = 0.0221873, No Iterations 4
smoothSolver:  Solving for k, Initial residual = 0.493418, Final residual = 0.0360694, No Iterations 5
ExecutionTime = 0.07 s  ClockTime = 0 s

scalarTransport execute: age
smoothSolver:  Solving for age, Initial residual = 0.411822, Final residual = 0.0375089, No Iterations 9

Time = 4

smoothSolver:  Solving for Ux, Initial residual = 0.0888012, Final residual = 0.00627746, No Iterations 5
smoothSolver:  Solving for Uy, Initial residual = 0.0516839, Final residual = 0.00338898, No Iterations 5
GAMG:  Solving for p, Initial residual = 0.088096, Final residual = 0.00799987, No Iterations 2
time step continuity errors : sum local = 0.0251196, global = 0.00291663, cumulative = 0.0104635
smoothSolver:  Solving for omega, Initial residual = 0.133957, Final residual = 0.00885556, No Iterations 5
smoothSolver:  Solving for k, Initial residual = 0.411129, Final residual = 0.0339514, No Iterations 5
ExecutionTime = 0.09 s  ClockTime = 0 s

scalarTransport execute: age
smoothSolver:  Solving for age, Initial residual = 0.296953, Final residual = 0.0261931, No Iterations 9

Time = 5

smoothSolver:  Solving for Ux, Initial residual = 0.0487803, Final residual = 0.00435936, No Iterations 5
smoothSolver:  Solving for Uy, Initial residual = 0.0302858, Final residual = 0.00217534, No Iterations 5
GAMG:  Solving for p, Initial residual = 0.0723457, Final residual = 0.00541694, No Iterations 2
time step continuity errors : sum local = 0.0169554, global = 0.00193142, cumulative = 0.0123949
smoothSolver:  Solving for omega, Initial residual = 0.0934852, Final residual = 0.00680093, No Iterations 5
smoothSolver:  Solving for k, Initial residual = 0.319805, Final residual = 0.0285866, No Iterations 5
ExecutionTime = 0.1 s  ClockTime = 0 s

scalarTransport execute: age
smoothSolver:  Solving for age, Initial residual = 0.216684, Final residual = 0.0187202, No Iterations 10

Time = 6

smoothSolver:  Solving for Ux, Initial residual = 0.0385794, Final residual = 0.00372365, No Iterations 5
smoothSolver:  Solving for Uy, Initial residual = 0.0244368, Final residual = 0.00197543, No Iterations 5
GAMG:  Solving for p, Initial residual = 0.0607269, Final residual = 0.00220264, No Iterations 2
time step continuity errors : sum local = 0.00661421, global = 0.000781859, cumulative = 0.0131768
smoothSolver:  Solving for omega, Initial residual = 0.0726599, Final residual = 0.00567137, No Iterations 5
smoothSolver:  Solving for k, Initial residual = 0.257623, Final residual = 0.0244623, No Iterations 5
ExecutionTime = 0.11 s  ClockTime = 0 s

scalarTransport execute: age
smoothSolver:  Solving for age, Initial residual = 0.17133, Final residual = 0.0161049, No Iterations 10

Time = 7

smoothSolver:  Solving for Ux, Initial residual = 0.0332073, Final residual = 0.0021805, No Iterations 6
smoothSolver:  Solving for Uy, Initial residual = 0.0209962, Final residual = 0.00181714, No Iterations 5
GAMG:  Solving for p, Initial residual = 0.0483486, Final residual = 0.00194222, No Iterations 2
time step continuity errors : sum local = 0.00581314, global = -0.000127289, cumulative = 0.0130495
smoothSolver:  Solving for omega, Initial residual = 0.0555967, Final residual = 0.00465409, No Iterations 5
smoothSolver:  Solving for k, Initial residual = 0.214491, Final residual = 0.0212476, No Iterations 5
ExecutionTime = 0.13 s  ClockTime = 0 s

scalarTransport execute: age
smoothSolver:  Solving for age, Initial residual = 0.140129, Final residual = 0.0119902, No Iterations 11

Time = 8

smoothSolver:  Solving for Ux, Initial residual = 0.0291911, Final residual = 0.00193036, No Iterations 6
smoothSolver:  Solving for Uy, Initial residual = 0.0187859, Final residual = 0.00169713, No Iterations 5
GAMG:  Solving for p, Initial residual = 0.0395337, Final residual = 0.0018734, No Iterations 2
time step continuity errors : sum local = 0.00566123, global = -0.000664939, cumulative = 0.0123845
smoothSolver:  Solving for omega, Initial residual = 0.0447635, Final residual = 0.00388502, No Iterations 5
smoothSolver:  Solving for k, Initial residual = 0.183344, Final residual = 0.0119133, No Iterations 6
ExecutionTime = 0.14 s  ClockTime = 0 s

scalarTransport execute: age
smoothSolver:  Solving for age, Initial residual = 0.117, Final residual = 0.0104165, No Iterations 11

Time = 9

smoothSolver:  Solving for Ux, Initial residual = 0.0256589, Final residual = 0.00253924, No Iterations 5
smoothSolver:  Solving for Uy, Initial residual = 0.0176012, Final residual = 0.00161387, No Iterations 5
GAMG:  Solving for p, Initial residual = 0.033027, Final residual = 0.00207186, No Iterations 2
time step continuity errors : sum local = 0.00640159, global = -0.000700039, cumulative = 0.0116845
smoothSolver:  Solving for omega, Initial residual = 0.0371838, Final residual = 0.00331231, No Iterations 5
smoothSolver:  Solving for k, Initial residual = 0.159832, Final residual = 0.010703, No Iterations 6
ExecutionTime = 0.15 s  ClockTime = 0 s

scalarTransport execute: age
smoothSolver:  Solving for age, Initial residual = 0.0989745, Final residual = 0.00907854, No Iterations 11

Time = 10

smoothSolver:  Solving for Ux, Initial residual = 0.023607, Final residual = 0.00233002, No Iterations 5
smoothSolver:  Solving for Uy, Initial residual = 0.0165431, Final residual = 0.00152222, No Iterations 5
GAMG:  Solving for p, Initial residual = 0.0277796, Final residual = 0.0011888, No Iterations 2
time step continuity errors : sum local = 0.00379367, global = -0.000634526, cumulative = 0.01105
smoothSolver:  Solving for omega, Initial residual = 0.0310576, Final residual = 0.00284729, No Iterations 5
smoothSolver:  Solving for k, Initial residual = 0.141487, Final residual = 0.00971104, No Iterations 6
ExecutionTime = 0.16 s  ClockTime = 0 s

scalarTransport execute: age
smoothSolver:  Solving for age, Initial residual = 0.0854098, Final residual = 0.00802172, No Iterations 11

Time = 11

smoothSolver:  Solving for Ux, Initial residual = 0.0218065, Final residual = 0.00142917, No Iterations 6
smoothSolver:  Solving for Uy, Initial residual = 0.0155574, Final residual = 0.00146949, No Iterations 5
GAMG:  Solving for p, Initial residual = 0.0245778, Final residual = 0.000734981, No Iterations 2
time step continuity errors : sum local = 0.00238312, global = -0.000492311, cumulative = 0.0105577
smoothSolver:  Solving for omega, Initial residual = 0.0263151, Final residual = 0.0024666, No Iterations 5
smoothSolver:  Solving for k, Initial residual = 0.126819, Final residual = 0.00888162, No Iterations 6
ExecutionTime = 0.18 s  ClockTime = 0 s

scalarTransport execute: age
smoothSolver:  Solving for age, Initial residual = 0.0746068, Final residual = 0.00723043, No Iterations 11

Time = 12

smoothSolver:  Solving for Ux, Initial residual = 0.0202831, Final residual = 0.00135077, No Iterations 6
smoothSolver:  Solving for Uy, Initial residual = 0.0148902, Final residual = 0.00144869, No Iterations 5
GAMG:  Solving for p, Initial residual = 0.0230469, Final residual = 0.00083846, No Iterations 2
time step continuity errors : sum local = 0.00273007, global = -0.000387653, cumulative = 0.01017
smoothSolver:  Solving for omega, Initial residual = 0.0225913, Final residual = 0.00215239, No Iterations 5
smoothSolver:  Solving for k, Initial residual = 0.114874, Final residual = 0.00817948, No Iterations 6
ExecutionTime = 0.19 s  ClockTime = 0 s

scalarTransport execute: age
smoothSolver:  Solving for age, Initial residual = 0.065393, Final residual = 0.00562635, No Iterations 12

Time = 13

smoothSolver:  Solving for Ux, Initial residual = 0.0190423, Final residual = 0.0012791, No Iterations 6
smoothSolver:  Solving for Uy, Initial residual = 0.0144236, Final residual = 0.0014302, No Iterations 5
GAMG:  Solving for p, Initial residual = 0.0216254, Final residual = 0.000838952, No Iterations 2
time step continuity errors : sum local = 0.00273055, global = -0.000265292, cumulative = 0.00990472
smoothSolver:  Solving for omega, Initial residual = 0.0195891, Final residual = 0.00189141, No Iterations 5
smoothSolver:  Solving for k, Initial residual = 0.104963, Final residual = 0.00757749, No Iterations 6
ExecutionTime = 0.2 s  ClockTime = 0 s

scalarTransport execute: age
smoothSolver:  Solving for age, Initial residual = 0.0579417, Final residual = 0.00513194, No Iterations 12

Time = 14

smoothSolver:  Solving for Ux, Initial residual = 0.0180019, Final residual = 0.00121285, No Iterations 6
smoothSolver:  Solving for Uy, Initial residual = 0.0141439, Final residual = 0.000927112, No Iterations 6
GAMG:  Solving for p, Initial residual = 0.020591, Final residual = 0.000798456, No Iterations 2
time step continuity errors : sum local = 0.00259223, global = -0.00011754, cumulative = 0.00978718
smoothSolver:  Solving for omega, Initial residual = 0.0171438, Final residual = 0.00167272, No Iterations 5
smoothSolver:  Solving for k, Initial residual = 0.0965963, Final residual = 0.00705429, No Iterations 6
ExecutionTime = 0.22 s  ClockTime = 0 s

scalarTransport execute: age
smoothSolver:  Solving for age, Initial residual = 0.0515919, Final residual = 0.00471321, No Iterations 12

Time = 15

smoothSolver:  Solving for Ux, Initial residual = 0.0171227, Final residual = 0.00115453, No Iterations 6
smoothSolver:  Solving for Uy, Initial residual = 0.0139475, Final residual = 0.000917854, No Iterations 6
GAMG:  Solving for p, Initial residual = 0.0197893, Final residual = 0.000770239, No Iterations 2
time step continuity errors : sum local = 0.00248865, global = 4.05894e-05, cumulative = 0.00982777
smoothSolver:  Solving for omega, Initial residual = 0.0151281, Final residual = 0.00148806, No Iterations 5
smoothSolver:  Solving for k, Initial residual = 0.0894464, Final residual = 0.00659604, No Iterations 6
ExecutionTime = 0.23 s  ClockTime = 0 s

scalarTransport execute: age
smoothSolver:  Solving for age, Initial residual = 0.0459671, Final residual = 0.00426266, No Iterations 12

Time = 16

smoothSolver:  Solving for Ux, Initial residual = 0.0162582, Final residual = 0.0010954, No Iterations 6
smoothSolver:  Solving for Uy, Initial residual = 0.0137763, Final residual = 0.000908736, No Iterations 6
GAMG:  Solving for p, Initial residual = 0.0191417, Final residual = 0.000765654, No Iterations 2
time step continuity errors : sum local = 0.00245829, global = 0.000186387, cumulative = 0.0100142
smoothSolver:  Solving for omega, Initial residual = 0.0134533, Final residual = 0.00133098, No Iterations 5
smoothSolver:  Solving for k, Initial residual = 0.0832515, Final residual = 0.00618981, No Iterations 6
ExecutionTime = 0.24 s  ClockTime = 0 s

scalarTransport execute: age
smoothSolver:  Solving for age, Initial residual = 0.0402189, Final residual = 0.00379667, No Iterations 12

Time = 17

smoothSolver:  Solving for Ux, Initial residual = 0.0154167, Final residual = 0.00103599, No Iterations 6
smoothSolver:  Solving for Uy, Initial residual = 0.013676, Final residual = 0.000901563, No Iterations 6
GAMG:  Solving for p, Initial residual = 0.0185657, Final residual = 0.000777134, No Iterations 2
time step continuity errors : sum local = 0.00247174, global = 0.000304129, cumulative = 0.0103183
smoothSolver:  Solving for omega, Initial residual = 0.0120491, Final residual = 0.00119684, No Iterations 5
smoothSolver:  Solving for k, Initial residual = 0.0778342, Final residual = 0.00582729, No Iterations 6
ExecutionTime = 0.26 s  ClockTime = 0 s

scalarTransport execute: age
smoothSolver:  Solving for age, Initial residual = 0.0352812, Final residual = 0.00335397, No Iterations 12

Time = 18

smoothSolver:  Solving for Ux, Initial residual = 0.0146079, Final residual = 0.000979832, No Iterations 6
smoothSolver:  Solving for Uy, Initial residual = 0.0135728, Final residual = 0.000894482, No Iterations 6
GAMG:  Solving for p, Initial residual = 0.0180265, Final residual = 0.000802515, No Iterations 2
time step continuity errors : sum local = 0.00252394, global = 0.000384082, cumulative = 0.0107024
smoothSolver:  Solving for omega, Initial residual = 0.0108612, Final residual = 0.00108149, No Iterations 5
smoothSolver:  Solving for k, Initial residual = 0.0730444, Final residual = 0.00550107, No Iterations 6
ExecutionTime = 0.27 s  ClockTime = 0 s

scalarTransport execute: age
smoothSolver:  Solving for age, Initial residual = 0.0309817, Final residual = 0.00296237, No Iterations 12

Time = 19

smoothSolver:  Solving for Ux, Initial residual = 0.0138678, Final residual = 0.000928154, No Iterations 6
smoothSolver:  Solving for Uy, Initial residual = 0.0134363, Final residual = 0.000886592, No Iterations 6
GAMG:  Solving for p, Initial residual = 0.0175601, Final residual = 0.000815306, No Iterations 2
time step continuity errors : sum local = 0.00253045, global = 0.000423183, cumulative = 0.0111256
smoothSolver:  Solving for omega, Initial residual = 0.00983978, Final residual = 0.000981656, No Iterations 5
smoothSolver:  Solving for k, Initial residual = 0.0687741, Final residual = 0.00520566, No Iterations 6
ExecutionTime = 0.28 s  ClockTime = 0 s

scalarTransport execute: age
smoothSolver:  Solving for age, Initial residual = 0.0274349, Final residual = 0.00262726, No Iterations 12

Time = 20

smoothSolver:  Solving for Ux, Initial residual = 0.0131962, Final residual = 0.000883244, No Iterations 6
smoothSolver:  Solving for Uy, Initial residual = 0.0132642, Final residual = 0.000876917, No Iterations 6
GAMG:  Solving for p, Initial residual = 0.017009, Final residual = 0.000801012, No Iterations 2
time step continuity errors : sum local = 0.00245213, global = 0.000429565, cumulative = 0.0115551
smoothSolver:  Solving for omega, Initial residual = 0.00896261, Final residual = 0.000894612, No Iterations 5
smoothSolver:  Solving for k, Initial residual = 0.0649436, Final residual = 0.00493674, No Iterations 6
ExecutionTime = 0.3 s  ClockTime = 0 s

scalarTransport execute: age
smoothSolver:  Solving for age, Initial residual = 0.0244414, Final residual = 0.00233863, No Iterations 12

Time = 21

smoothSolver:  Solving for Ux, Initial residual = 0.0126228, Final residual = 0.000844221, No Iterations 6
smoothSolver:  Solving for Uy, Initial residual = 0.0130657, Final residual = 0.000864861, No Iterations 6
GAMG:  Solving for p, Initial residual = 0.0164016, Final residual = 0.000767604, No Iterations 2
time step continuity errors : sum local = 0.00232032, global = 0.000416987, cumulative = 0.0119721
smoothSolver:  Solving for omega, Initial residual = 0.00820202, Final residual = 0.000818346, No Iterations 5
smoothSolver:  Solving for k, Initial residual = 0.0614746, Final residual = 0.00468988, No Iterations 6
ExecutionTime = 0.31 s  ClockTime = 0 s

scalarTransport execute: age
smoothSolver:  Solving for age, Initial residual = 0.0218398, Final residual = 0.00208365, No Iterations 12

Time = 22

smoothSolver:  Solving for Ux, Initial residual = 0.0121143, Final residual = 0.00081076, No Iterations 6
smoothSolver:  Solving for Uy, Initial residual = 0.0128393, Final residual = 0.000850886, No Iterations 6
GAMG:  Solving for p, Initial residual = 0.0157125, Final residual = 0.000734123, No Iterations 2
time step continuity errors : sum local = 0.0021928, global = 0.000396651, cumulative = 0.0123688
smoothSolver:  Solving for omega, Initial residual = 0.00753604, Final residual = 0.000751057, No Iterations 5
smoothSolver:  Solving for k, Initial residual = 0.0583112, Final residual = 0.00446202, No Iterations 6
ExecutionTime = 0.32 s  ClockTime = 0 s

scalarTransport execute: age
smoothSolver:  Solving for age, Initial residual = 0.0195397, Final residual = 0.00185213, No Iterations 12

Time = 23

smoothSolver:  Solving for Ux, Initial residual = 0.0116592, Final residual = 0.000781283, No Iterations 6
smoothSolver:  Solving for Uy, Initial residual = 0.0125965, Final residual = 0.000835186, No Iterations 6
GAMG:  Solving for p, Initial residual = 0.0150107, Final residual = 0.000709858, No Iterations 2
time step continuity errors : sum local = 0.00209474, global = 0.000375033, cumulative = 0.0127438
smoothSolver:  Solving for omega, Initial residual = 0.00694641, Final residual = 0.000691444, No Iterations 5
smoothSolver:  Solving for k, Initial residual = 0.055408, Final residual = 0.00425055, No Iterations 6
ExecutionTime = 0.34 s  ClockTime = 0 s

scalarTransport execute: age
smoothSolver:  Solving for age, Initial residual = 0.0175996, Final residual = 0.00164114, No Iterations 12

Time = 24

smoothSolver:  Solving for Ux, Initial residual = 0.0112459, Final residual = 0.000755259, No Iterations 6
smoothSolver:  Solving for Uy, Initial residual = 0.0123378, Final residual = 0.000818005, No Iterations 6
GAMG:  Solving for p, Initial residual = 0.0143431, Final residual = 0.000691842, No Iterations 2
time step continuity errors : sum local = 0.00201725, global = 0.00035543, cumulative = 0.0130992
smoothSolver:  Solving for omega, Initial residual = 0.00642622, Final residual = 0.000638505, No Iterations 5
smoothSolver:  Solving for k, Initial residual = 0.0527301, Final residual = 0.00405352, No Iterations 6
ExecutionTime = 0.35 s  ClockTime = 0 s

scalarTransport execute: age
smoothSolver:  Solving for age, Initial residual = 0.0160061, Final residual = 0.00144453, No Iterations 12

Time = 25

smoothSolver:  Solving for Ux, Initial residual = 0.0108694, Final residual = 0.000732142, No Iterations 6
smoothSolver:  Solving for Uy, Initial residual = 0.012094, Final residual = 0.000799511, No Iterations 6
GAMG:  Solving for p, Initial residual = 0.0138828, Final residual = 0.000677311, No Iterations 2
time step continuity errors : sum local = 0.00195249, global = 0.000339332, cumulative = 0.0134385
smoothSolver:  Solving for omega, Initial residual = 0.00596771, Final residual = 0.000591398, No Iterations 5
smoothSolver:  Solving for k, Initial residual = 0.0502316, Final residual = 0.0038679, No Iterations 6
ExecutionTime = 0.36 s  ClockTime = 0 s

scalarTransport execute: age
smoothSolver:  Solving for age, Initial residual = 0.0146712, Final residual = 0.00126935, No Iterations 12

Time = 26

smoothSolver:  Solving for Ux, Initial residual = 0.0105301, Final residual = 0.000710632, No Iterations 6
smoothSolver:  Solving for Uy, Initial residual = 0.0118484, Final residual = 0.000779488, No Iterations 6
GAMG:  Solving for p, Initial residual = 0.0137114, Final residual = 0.000666251, No Iterations 2
time step continuity errors : sum local = 0.00189987, global = 0.000327697, cumulative = 0.0137662
smoothSolver:  Solving for omega, Initial residual = 0.00555973, Final residual = 0.000549207, No Iterations 5
smoothSolver:  Solving for k, Initial residual = 0.0479025, Final residual = 0.00369345, No Iterations 6
ExecutionTime = 0.38 s  ClockTime = 0 s

scalarTransport execute: age
smoothSolver:  Solving for age, Initial residual = 0.0135225, Final residual = 0.00132279, No Iterations 11

Time = 27

smoothSolver:  Solving for Ux, Initial residual = 0.0102331, Final residual = 0.000690302, No Iterations 6
smoothSolver:  Solving for Uy, Initial residual = 0.0115882, Final residual = 0.000756963, No Iterations 6
GAMG:  Solving for p, Initial residual = 0.0136523, Final residual = 0.000660863, No Iterations 2
time step continuity errors : sum local = 0.00186611, global = 0.000320377, cumulative = 0.0140866
smoothSolver:  Solving for omega, Initial residual = 0.00519047, Final residual = 0.0005107, No Iterations 5
smoothSolver:  Solving for k, Initial residual = 0.0457141, Final residual = 0.00352855, No Iterations 6
ExecutionTime = 0.39 s  ClockTime = 0 s

scalarTransport execute: age
smoothSolver:  Solving for age, Initial residual = 0.0125875, Final residual = 0.00119302, No Iterations 11

Time = 28

smoothSolver:  Solving for Ux, Initial residual = 0.00999523, Final residual = 0.000671403, No Iterations 6
smoothSolver:  Solving for Uy, Initial residual = 0.0112803, Final residual = 0.00112771, No Iterations 5
GAMG:  Solving for p, Initial residual = 0.013649, Final residual = 0.000666874, No Iterations 2
time step continuity errors : sum local = 0.00186801, global = 0.000313603, cumulative = 0.0144002
smoothSolver:  Solving for omega, Initial residual = 0.00482992, Final residual = 0.000474626, No Iterations 5
smoothSolver:  Solving for k, Initial residual = 0.0436482, Final residual = 0.00337241, No Iterations 6
ExecutionTime = 0.4 s  ClockTime = 0 s

scalarTransport execute: age
smoothSolver:  Solving for age, Initial residual = 0.0118974, Final residual = 0.00108758, No Iterations 11

Time = 29

smoothSolver:  Solving for Ux, Initial residual = 0.0097264, Final residual = 0.000649474, No Iterations 6
smoothSolver:  Solving for Uy, Initial residual = 0.0109736, Final residual = 0.00109136, No Iterations 5
GAMG:  Solving for p, Initial residual = 0.0132796, Final residual = 0.000675846, No Iterations 2
time step continuity errors : sum local = 0.00187256, global = 0.000309306, cumulative = 0.0147095
smoothSolver:  Solving for omega, Initial residual = 0.00451665, Final residual = 0.000442315, No Iterations 5
smoothSolver:  Solving for k, Initial residual = 0.0416897, Final residual = 0.00322384, No Iterations 6
ExecutionTime = 0.41 s  ClockTime = 0 s

scalarTransport execute: age
smoothSolver:  Solving for age, Initial residual = 0.0110944, Final residual = 0.00100532, No Iterations 11

Time = 30

smoothSolver:  Solving for Ux, Initial residual = 0.00952224, Final residual = 0.000630631, No Iterations 6
smoothSolver:  Solving for Uy, Initial residual = 0.0105848, Final residual = 0.00104659, No Iterations 5
GAMG:  Solving for p, Initial residual = 0.0129365, Final residual = 0.000679271, No Iterations 2
time step continuity errors : sum local = 0.00186828, global = 0.000308545, cumulative = 0.0150181
smoothSolver:  Solving for omega, Initial residual = 0.00425108, Final residual = 0.000413572, No Iterations 5
smoothSolver:  Solving for k, Initial residual = 0.0398282, Final residual = 0.00308201, No Iterations 6
ExecutionTime = 0.43 s  ClockTime = 0 s

scalarTransport execute: age
smoothSolver:  Solving for age, Initial residual = 0.0104631, Final residual = 0.000944884, No Iterations 11

Time = 31

smoothSolver:  Solving for Ux, Initial residual = 0.00937814, Final residual = 0.0006155, No Iterations 6
smoothSolver:  Solving for Uy, Initial residual = 0.0101263, Final residual = 0.00099582, No Iterations 5
GAMG:  Solving for p, Initial residual = 0.0124436, Final residual = 0.000674323, No Iterations 2
time step continuity errors : sum local = 0.00184251, global = 0.000309943, cumulative = 0.015328
smoothSolver:  Solving for omega, Initial residual = 0.00400365, Final residual = 0.000387397, No Iterations 5
smoothSolver:  Solving for k, Initial residual = 0.0380561, Final residual = 0.00294672, No Iterations 6
ExecutionTime = 0.44 s  ClockTime = 0 s

scalarTransport execute: age
smoothSolver:  Solving for age, Initial residual = 0.00991276, Final residual = 0.000903576, No Iterations 11

Time = 32

smoothSolver:  Solving for Ux, Initial residual = 0.00925509, Final residual = 0.000602222, No Iterations 6
smoothSolver:  Solving for Uy, Initial residual = 0.00962077, Final residual = 0.000941959, No Iterations 5
GAMG:  Solving for p, Initial residual = 0.0119043, Final residual = 0.000650857, No Iterations 2
time step continuity errors : sum local = 0.00176848, global = 0.000305384, cumulative = 0.0156334
smoothSolver:  Solving for omega, Initial residual = 0.00377863, Final residual = 0.000363481, No Iterations 5
smoothSolver:  Solving for k, Initial residual = 0.0363648, Final residual = 0.00281746, No Iterations 6
ExecutionTime = 0.45 s  ClockTime = 0 s

scalarTransport execute: age
smoothSolver:  Solving for age, Initial residual = 0.00945861, Final residual = 0.000879107, No Iterations 11

Time = 33

smoothSolver:  Solving for Ux, Initial residual = 0.00913795, Final residual = 0.000908997, No Iterations 5
smoothSolver:  Solving for Uy, Initial residual = 0.00910469, Final residual = 0.000887203, No Iterations 5
GAMG:  Solving for p, Initial residual = 0.0112756, Final residual = 0.000620419, No Iterations 2
time step continuity errors : sum local = 0.00167577, global = 0.000299551, cumulative = 0.015933
smoothSolver:  Solving for omega, Initial residual = 0.00357274, Final residual = 0.000341577, No Iterations 5
smoothSolver:  Solving for k, Initial residual = 0.0347519, Final residual = 0.00269434, No Iterations 6
ExecutionTime = 0.47 s  ClockTime = 0 s

scalarTransport execute: age
smoothSolver:  Solving for age, Initial residual = 0.00910005, Final residual = 0.000876096, No Iterations 11

Time = 34

smoothSolver:  Solving for Ux, Initial residual = 0.00908442, Final residual = 0.000900629, No Iterations 5
smoothSolver:  Solving for Uy, Initial residual = 0.00853881, Final residual = 0.000829533, No Iterations 5
GAMG:  Solving for p, Initial residual = 0.0107931, Final residual = 0.000602014, No Iterations 2
time step continuity errors : sum local = 0.00161806, global = 0.000293625, cumulative = 0.0162266
smoothSolver:  Solving for omega, Initial residual = 0.00338293, Final residual = 0.000321419, No Iterations 5
smoothSolver:  Solving for k, Initial residual = 0.0332131, Final residual = 0.00257677, No Iterations 6
ExecutionTime = 0.48 s  ClockTime = 0 s

scalarTransport execute: age
smoothSolver:  Solving for age, Initial residual = 0.00878098, Final residual = 0.000877629, No Iterations 11

Time = 35

smoothSolver:  Solving for Ux, Initial residual = 0.00899486, Final residual = 0.000888975, No Iterations 5
smoothSolver:  Solving for Uy, Initial residual = 0.00801852, Final residual = 0.000775035, No Iterations 5
GAMG:  Solving for p, Initial residual = 0.0104328, Final residual = 0.000592199, No Iterations 2
time step continuity errors : sum local = 0.00158383, global = 0.000288079, cumulative = 0.0165147
smoothSolver:  Solving for omega, Initial residual = 0.00320806, Final residual = 0.000302789, No Iterations 5
smoothSolver:  Solving for k, Initial residual = 0.0317457, Final residual = 0.00246447, No Iterations 6
ExecutionTime = 0.49 s  ClockTime = 0 s

scalarTransport execute: age
smoothSolver:  Solving for age, Initial residual = 0.00849605, Final residual = 0.000756779, No Iterations 12

Time = 36

smoothSolver:  Solving for Ux, Initial residual = 0.00887333, Final residual = 0.000874427, No Iterations 5
smoothSolver:  Solving for Uy, Initial residual = 0.00754023, Final residual = 0.00072459, No Iterations 5
GAMG:  Solving for p, Initial residual = 0.0101625, Final residual = 0.000602374, No Iterations 2
time step continuity errors : sum local = 0.00160345, global = 0.000288806, cumulative = 0.0168035
smoothSolver:  Solving for omega, Initial residual = 0.00304783, Final residual = 0.000285494, No Iterations 5
smoothSolver:  Solving for k, Initial residual = 0.030351, Final residual = 0.00235732, No Iterations 6
ExecutionTime = 0.5 s  ClockTime = 0 s

scalarTransport execute: age
smoothSolver:  Solving for age, Initial residual = 0.0082301, Final residual = 0.000750053, No Iterations 12

Time = 37

smoothSolver:  Solving for Ux, Initial residual = 0.0087541, Final residual = 0.000857828, No Iterations 5
smoothSolver:  Solving for Uy, Initial residual = 0.00709052, Final residual = 0.000677762, No Iterations 5
GAMG:  Solving for p, Initial residual = 0.00997998, Final residual = 0.00061041, No Iterations 2
time step continuity errors : sum local = 0.00161869, global = 0.000292398, cumulative = 0.0170959
smoothSolver:  Solving for omega, Initial residual = 0.00290123, Final residual = 0.000269359, No Iterations 5
smoothSolver:  Solving for k, Initial residual = 0.0290266, Final residual = 0.00225504, No Iterations 6
ExecutionTime = 0.52 s  ClockTime = 0 s

scalarTransport execute: age
smoothSolver:  Solving for age, Initial residual = 0.00798309, Final residual = 0.00073995, No Iterations 12

Time = 38

smoothSolver:  Solving for Ux, Initial residual = 0.00863255, Final residual = 0.000839936, No Iterations 5
smoothSolver:  Solving for Uy, Initial residual = 0.00666526, Final residual = 0.000634674, No Iterations 5
GAMG:  Solving for p, Initial residual = 0.00987005, Final residual = 0.000623007, No Iterations 2
time step continuity errors : sum local = 0.00164661, global = 0.000297487, cumulative = 0.0173934
smoothSolver:  Solving for omega, Initial residual = 0.00278937, Final residual = 0.000254268, No Iterations 5
smoothSolver:  Solving for k, Initial residual = 0.027777, Final residual = 0.00215768, No Iterations 6
ExecutionTime = 0.53 s  ClockTime = 0 s

scalarTransport execute: age
smoothSolver:  Solving for age, Initial residual = 0.0077414, Final residual = 0.000729215, No Iterations 12

Time = 39

smoothSolver:  Solving for Ux, Initial residual = 0.00849643, Final residual = 0.00082148, No Iterations 5
smoothSolver:  Solving for Uy, Initial residual = 0.00627337, Final residual = 0.00059508, No Iterations 5
GAMG:  Solving for p, Initial residual = 0.00982961, Final residual = 0.000646015, No Iterations 2
time step continuity errors : sum local = 0.00170213, global = 0.000304403, cumulative = 0.0176978
smoothSolver:  Solving for omega, Initial residual = 0.00265963, Final residual = 0.000240621, No Iterations 5
smoothSolver:  Solving for k, Initial residual = 0.0265932, Final residual = 0.00206496, No Iterations 6
ExecutionTime = 0.54 s  ClockTime = 0 s

scalarTransport execute: age
smoothSolver:  Solving for age, Initial residual = 0.00751755, Final residual = 0.000718882, No Iterations 12

Time = 40

smoothSolver:  Solving for Ux, Initial residual = 0.00835805, Final residual = 0.000803124, No Iterations 5
smoothSolver:  Solving for Uy, Initial residual = 0.00592568, Final residual = 0.000558961, No Iterations 5
GAMG:  Solving for p, Initial residual = 0.00989986, Final residual = 0.000672516, No Iterations 2
time step continuity errors : sum local = 0.00176672, global = 0.000312565, cumulative = 0.0180103
smoothSolver:  Solving for omega, Initial residual = 0.0025439, Final residual = 0.000227935, No Iterations 5
smoothSolver:  Solving for k, Initial residual = 0.0254703, Final residual = 0.00197656, No Iterations 6
ExecutionTime = 0.56 s  ClockTime = 0 s

scalarTransport execute: age
smoothSolver:  Solving for age, Initial residual = 0.00727958, Final residual = 0.000707693, No Iterations 12

Time = 41

smoothSolver:  Solving for Ux, Initial residual = 0.0082271, Final residual = 0.000786001, No Iterations 5
smoothSolver:  Solving for Uy, Initial residual = 0.00562089, Final residual = 0.000526196, No Iterations 5
GAMG:  Solving for p, Initial residual = 0.0100346, Final residual = 0.000704963, No Iterations 2
time step continuity errors : sum local = 0.00184495, global = 0.000321138, cumulative = 0.0183315
smoothSolver:  Solving for omega, Initial residual = 0.00242496, Final residual = 0.000215891, No Iterations 5
smoothSolver:  Solving for k, Initial residual = 0.0244046, Final residual = 0.00189254, No Iterations 6
ExecutionTime = 0.57 s  ClockTime = 0 s

scalarTransport execute: age
smoothSolver:  Solving for age, Initial residual = 0.00709562, Final residual = 0.000697033, No Iterations 12

Time = 42

smoothSolver:  Solving for Ux, Initial residual = 0.00813583, Final residual = 0.00077197, No Iterations 5
smoothSolver:  Solving for Uy, Initial residual = 0.00535548, Final residual = 0.000496576, No Iterations 5
GAMG:  Solving for p, Initial residual = 0.0103001, Final residual = 0.000735992, No Iterations 2
time step continuity errors : sum local = 0.00191785, global = 0.000329358, cumulative = 0.0186608
smoothSolver:  Solving for omega, Initial residual = 0.00231015, Final residual = 0.000204202, No Iterations 5
smoothSolver:  Solving for k, Initial residual = 0.0233907, Final residual = 0.00181274, No Iterations 6
ExecutionTime = 0.58 s  ClockTime = 0 s

scalarTransport execute: age
smoothSolver:  Solving for age, Initial residual = 0.00691796, Final residual = 0.000685841, No Iterations 12

Time = 43

smoothSolver:  Solving for Ux, Initial residual = 0.00807948, Final residual = 0.000761242, No Iterations 5
smoothSolver:  Solving for Uy, Initial residual = 0.00512601, Final residual = 0.000470099, No Iterations 5
GAMG:  Solving for p, Initial residual = 0.0106234, Final residual = 0.000763609, No Iterations 2
time step continuity errors : sum local = 0.001981, global = 0.000335425, cumulative = 0.0189962
smoothSolver:  Solving for omega, Initial residual = 0.00221001, Final residual = 0.000192966, No Iterations 5
smoothSolver:  Solving for k, Initial residual = 0.0224332, Final residual = 0.00173735, No Iterations 6
ExecutionTime = 0.6 s  ClockTime = 0 s

scalarTransport execute: age
smoothSolver:  Solving for age, Initial residual = 0.00673461, Final residual = 0.000584284, No Iterations 13

Time = 44

smoothSolver:  Solving for Ux, Initial residual = 0.00804234, Final residual = 0.000751825, No Iterations 5
smoothSolver:  Solving for Uy, Initial residual = 0.00492681, Final residual = 0.000447185, No Iterations 5
GAMG:  Solving for p, Initial residual = 0.0109032, Final residual = 0.000780474, No Iterations 2
time step continuity errors : sum local = 0.00201797, global = 0.000336888, cumulative = 0.0193331
smoothSolver:  Solving for omega, Initial residual = 0.00209561, Final residual = 0.000182099, No Iterations 5
smoothSolver:  Solving for k, Initial residual = 0.0215232, Final residual = 0.00166621, No Iterations 6
ExecutionTime = 0.61 s  ClockTime = 0 s

scalarTransport execute: age
smoothSolver:  Solving for age, Initial residual = 0.00660697, Final residual = 0.000578556, No Iterations 13

Time = 45

smoothSolver:  Solving for Ux, Initial residual = 0.00800171, Final residual = 0.000744455, No Iterations 5
smoothSolver:  Solving for Uy, Initial residual = 0.0047587, Final residual = 0.000429668, No Iterations 5
GAMG:  Solving for p, Initial residual = 0.0110274, Final residual = 0.000779127, No Iterations 2
time step continuity errors : sum local = 0.00201058, global = 0.000329433, cumulative = 0.0196626
smoothSolver:  Solving for omega, Initial residual = 0.00201353, Final residual = 0.000172453, No Iterations 5
smoothSolver:  Solving for k, Initial residual = 0.0206612, Final residual = 0.00159905, No Iterations 6
ExecutionTime = 0.62 s  ClockTime = 1 s

scalarTransport execute: age
smoothSolver:  Solving for age, Initial residual = 0.00650952, Final residual = 0.000575489, No Iterations 13

Time = 46

smoothSolver:  Solving for Ux, Initial residual = 0.00799002, Final residual = 0.000741225, No Iterations 5
smoothSolver:  Solving for Uy, Initial residual = 0.00463388, Final residual = 0.000419304, No Iterations 5
GAMG:  Solving for p, Initial residual = 0.0110511, Final residual = 0.000773534, No Iterations 2
time step continuity errors : sum local = 0.00199506, global = 0.000315194, cumulative = 0.0199778
smoothSolver:  Solving for omega, Initial residual = 0.00193837, Final residual = 0.000163818, No Iterations 5
smoothSolver:  Solving for k, Initial residual = 0.019848, Final residual = 0.00153572, No Iterations 6
ExecutionTime = 0.63 s  ClockTime = 1 s

scalarTransport execute: age
smoothSolver:  Solving for age, Initial residual = 0.00637623, Final residual = 0.000576645, No Iterations 13

Time = 47

smoothSolver:  Solving for Ux, Initial residual = 0.00799077, Final residual = 0.000742515, No Iterations 5
smoothSolver:  Solving for Uy, Initial residual = 0.00456398, Final residual = 0.000414898, No Iterations 5
GAMG:  Solving for p, Initial residual = 0.0109755, Final residual = 0.000754478, No Iterations 2
time step continuity errors : sum local = 0.00194682, global = 0.000295261, cumulative = 0.020273
smoothSolver:  Solving for omega, Initial residual = 0.0018704, Final residual = 0.000155789, No Iterations 5
smoothSolver:  Solving for k, Initial residual = 0.0190804, Final residual = 0.00147597, No Iterations 6
ExecutionTime = 0.65 s  ClockTime = 1 s

scalarTransport execute: age
smoothSolver:  Solving for age, Initial residual = 0.00632858, Final residual = 0.000581878, No Iterations 13

Time = 48

smoothSolver:  Solving for Ux, Initial residual = 0.00799508, Final residual = 0.000745897, No Iterations 5
smoothSolver:  Solving for Uy, Initial residual = 0.00456036, Final residual = 0.0004154, No Iterations 5
GAMG:  Solving for p, Initial residual = 0.0108746, Final residual = 0.000750184, No Iterations 2
time step continuity errors : sum local = 0.00193828, global = 0.000277413, cumulative = 0.0205504
smoothSolver:  Solving for omega, Initial residual = 0.00179584, Final residual = 0.000148174, No Iterations 5
smoothSolver:  Solving for k, Initial residual = 0.0183549, Final residual = 0.00141947, No Iterations 6
ExecutionTime = 0.66 s  ClockTime = 1 s

scalarTransport execute: age
smoothSolver:  Solving for age, Initial residual = 0.00628713, Final residual = 0.000581034, No Iterations 13

Time = 49

smoothSolver:  Solving for Ux, Initial residual = 0.00800443, Final residual = 0.000751452, No Iterations 5
smoothSolver:  Solving for Uy, Initial residual = 0.00458919, Final residual = 0.000418922, No Iterations 5
GAMG:  Solving for p, Initial residual = 0.0108889, Final residual = 0.000764447, No Iterations 2
time step continuity errors : sum local = 0.00197869, global = 0.000266832, cumulative = 0.0208173
smoothSolver:  Solving for omega, Initial residual = 0.00172675, Final residual = 0.000140947, No Iterations 5
smoothSolver:  Solving for k, Initial residual = 0.0176653, Final residual = 0.00136586, No Iterations 6
ExecutionTime = 0.67 s  ClockTime = 1 s

scalarTransport execute: age
smoothSolver:  Solving for age, Initial residual = 0.00636423, Final residual = 0.000589224, No Iterations 13

Time = 50

smoothSolver:  Solving for Ux, Initial residual = 0.00802118, Final residual = 0.000759099, No Iterations 5
smoothSolver:  Solving for Uy, Initial residual = 0.00463459, Final residual = 0.000425727, No Iterations 5
GAMG:  Solving for p, Initial residual = 0.0109955, Final residual = 0.00077558, No Iterations 2
time step continuity errors : sum local = 0.0020104, global = 0.000257855, cumulative = 0.0210751
smoothSolver:  Solving for omega, Initial residual = 0.00166413, Final residual = 0.000134236, No Iterations 5
smoothSolver:  Solving for k, Initial residual = 0.0170089, Final residual = 0.00131471, No Iterations 6
ExecutionTime = 0.69 s  ClockTime = 1 s

scalarTransport execute: age
smoothSolver:  Solving for age, Initial residual = 0.00651238, Final residual = 0.000598456, No Iterations 13

Time = 51

smoothSolver:  Solving for Ux, Initial residual = 0.00807276, Final residual = 0.000770735, No Iterations 5
smoothSolver:  Solving for Uy, Initial residual = 0.00469941, Final residual = 0.0004365, No Iterations 5
GAMG:  Solving for p, Initial residual = 0.0111245, Final residual = 0.000803207, No Iterations 2
time step continuity errors : sum local = 0.00208259, global = 0.000257572, cumulative = 0.0213327
smoothSolver:  Solving for omega, Initial residual = 0.0016037, Final residual = 0.000127973, No Iterations 5
smoothSolver:  Solving for k, Initial residual = 0.0163851, Final residual = 0.00126581, No Iterations 6
ExecutionTime = 0.7 s  ClockTime = 1 s

scalarTransport execute: age
smoothSolver:  Solving for age, Initial residual = 0.0067698, Final residual = 0.000607902, No Iterations 13

Time = 52

smoothSolver:  Solving for Ux, Initial residual = 0.00813695, Final residual = 0.000783962, No Iterations 5
smoothSolver:  Solving for Uy, Initial residual = 0.00477523, Final residual = 0.000450043, No Iterations 5
GAMG:  Solving for p, Initial residual = 0.0114556, Final residual = 0.000806792, No Iterations 2
time step continuity errors : sum local = 0.00209447, global = 0.000255516, cumulative = 0.0215882
smoothSolver:  Solving for omega, Initial residual = 0.00155078, Final residual = 0.000122116, No Iterations 5
smoothSolver:  Solving for k, Initial residual = 0.0157908, Final residual = 0.00121903, No Iterations 6
ExecutionTime = 0.71 s  ClockTime = 1 s

scalarTransport execute: age
smoothSolver:  Solving for age, Initial residual = 0.00711031, Final residual = 0.000622578, No Iterations 13

Time = 53

smoothSolver:  Solving for Ux, Initial residual = 0.00823701, Final residual = 0.000800684, No Iterations 5
smoothSolver:  Solving for Uy, Initial residual = 0.00487597, Final residual = 0.000466663, No Iterations 5
GAMG:  Solving for p, Initial residual = 0.0118995, Final residual = 0.000807413, No Iterations 2
time step continuity errors : sum local = 0.00210222, global = 0.000251321, cumulative = 0.0218395
smoothSolver:  Solving for omega, Initial residual = 0.00150494, Final residual = 0.000116831, No Iterations 5
smoothSolver:  Solving for k, Initial residual = 0.0152228, Final residual = 0.00117412, No Iterations 6
ExecutionTime = 0.73 s  ClockTime = 1 s

scalarTransport execute: age
smoothSolver:  Solving for age, Initial residual = 0.00748111, Final residual = 0.000743484, No Iterations 12

Time = 54

smoothSolver:  Solving for Ux, Initial residual = 0.00834469, Final residual = 0.000819066, No Iterations 5
smoothSolver:  Solving for Uy, Initial residual = 0.00495212, Final residual = 0.000484234, No Iterations 5
GAMG:  Solving for p, Initial residual = 0.0125189, Final residual = 0.000834156, No Iterations 2
time step continuity errors : sum local = 0.00218626, global = 0.000249359, cumulative = 0.0220889
smoothSolver:  Solving for omega, Initial residual = 0.00146643, Final residual = 0.000111971, No Iterations 5
smoothSolver:  Solving for k, Initial residual = 0.0146793, Final residual = 0.00113101, No Iterations 6
ExecutionTime = 0.74 s  ClockTime = 1 s

scalarTransport execute: age
smoothSolver:  Solving for age, Initial residual = 0.00791143, Final residual = 0.000779318, No Iterations 12

Time = 55

smoothSolver:  Solving for Ux, Initial residual = 0.00846351, Final residual = 0.000836171, No Iterations 5
smoothSolver:  Solving for Uy, Initial residual = 0.00504717, Final residual = 0.000501667, No Iterations 5
GAMG:  Solving for p, Initial residual = 0.0135684, Final residual = 0.000880876, No Iterations 2
time step continuity errors : sum local = 0.0023476, global = 0.000251159, cumulative = 0.02234
smoothSolver:  Solving for omega, Initial residual = 0.0014331, Final residual = 0.000107366, No Iterations 5
smoothSolver:  Solving for k, Initial residual = 0.0141585, Final residual = 0.0010897, No Iterations 6
ExecutionTime = 0.75 s  ClockTime = 1 s

scalarTransport execute: age
smoothSolver:  Solving for age, Initial residual = 0.00836112, Final residual = 0.000809943, No Iterations 13

Time = 56

smoothSolver:  Solving for Ux, Initial residual = 0.00856741, Final residual = 0.00085039, No Iterations 5
smoothSolver:  Solving for Uy, Initial residual = 0.00516171, Final residual = 0.000338164, No Iterations 6
GAMG:  Solving for p, Initial residual = 0.0147472, Final residual = 0.00093077, No Iterations 2
time step continuity errors : sum local = 0.00257892, global = 0.000262409, cumulative = 0.0226025
smoothSolver:  Solving for omega, Initial residual = 0.00138169, Final residual = 0.000102603, No Iterations 5
smoothSolver:  Solving for k, Initial residual = 0.0136539, Final residual = 0.00105034, No Iterations 6
ExecutionTime = 0.77 s  ClockTime = 1 s

scalarTransport execute: age
smoothSolver:  Solving for age, Initial residual = 0.00916832, Final residual = 0.000829612, No Iterations 26

Time = 57

smoothSolver:  Solving for Ux, Initial residual = 0.00865786, Final residual = 0.000862976, No Iterations 5
smoothSolver:  Solving for Uy, Initial residual = 0.00523617, Final residual = 0.00034345, No Iterations 6
GAMG:  Solving for p, Initial residual = 0.0145528, Final residual = 0.000946577, No Iterations 2
time step continuity errors : sum local = 0.00256525, global = 0.000265344, cumulative = 0.0228678
smoothSolver:  Solving for omega, Initial residual = 0.00131486, Final residual = 9.79661e-05, No Iterations 5
smoothSolver:  Solving for k, Initial residual = 0.0131699, Final residual = 0.00101291, No Iterations 6
ExecutionTime = 0.78 s  ClockTime = 1 s

scalarTransport execute: age
smoothSolver:  Solving for age, Initial residual = 0.0329173, Final residual = 0.00280769, No Iterations 30

Time = 58

smoothSolver:  Solving for Ux, Initial residual = 0.00879166, Final residual = 0.000874947, No Iterations 5
smoothSolver:  Solving for Uy, Initial residual = 0.00527035, Final residual = 0.000349206, No Iterations 6
GAMG:  Solving for p, Initial residual = 0.0144578, Final residual = 0.000961555, No Iterations 2
time step continuity errors : sum local = 0.00258078, global = 0.000260204, cumulative = 0.023128
smoothSolver:  Solving for omega, Initial residual = 0.00126527, Final residual = 9.35428e-05, No Iterations 5
smoothSolver:  Solving for k, Initial residual = 0.012704, Final residual = 0.00097716, No Iterations 6
ExecutionTime = 0.78 s  ClockTime = 1 s

scalarTransport execute: age
smoothSolver:  Solving for age, Initial residual = 0.0711336, Final residual = 0.00623249, No Iterations 39

Time = 59

smoothSolver:  Solving for Ux, Initial residual = 0.00887896, Final residual = 0.000886642, No Iterations 5
smoothSolver:  Solving for Uy, Initial residual = 0.00533791, Final residual = 0.000355136, No Iterations 6
GAMG:  Solving for p, Initial residual = 0.0134094, Final residual = 0.000932135, No Iterations 2
time step continuity errors : sum local = 0.00245394, global = 0.000247549, cumulative = 0.0233755
smoothSolver:  Solving for omega, Initial residual = 0.00122551, Final residual = 8.95673e-05, No Iterations 5
smoothSolver:  Solving for k, Initial residual = 0.0122596, Final residual = 0.000943032, No Iterations 6
ExecutionTime = 0.81 s  ClockTime = 1 s

scalarTransport execute: age
smoothSolver:  Solving for age, Initial residual = 0.0574679, Final residual = 0.00553487, No Iterations 20

Time = 60

smoothSolver:  Solving for Ux, Initial residual = 0.00891403, Final residual = 0.00058729, No Iterations 6
smoothSolver:  Solving for Uy, Initial residual = 0.00538017, Final residual = 0.000361629, No Iterations 6
GAMG:  Solving for p, Initial residual = 0.0126774, Final residual = 0.000894931, No Iterations 2
time step continuity errors : sum local = 0.00233995, global = 0.000230034, cumulative = 0.0236056
smoothSolver:  Solving for omega, Initial residual = 0.00117424, Final residual = 8.6086e-05, No Iterations 5
smoothSolver:  Solving for k, Initial residual = 0.0118347, Final residual = 0.000910263, No Iterations 6
ExecutionTime = 0.82 s  ClockTime = 1 s

scalarTransport execute: age
smoothSolver:  Solving for age, Initial residual = 0.0554809, Final residual = 0.00552626, No Iterations 14

Time = 61

smoothSolver:  Solving for Ux, Initial residual = 0.00889927, Final residual = 0.000591082, No Iterations 6
smoothSolver:  Solving for Uy, Initial residual = 0.00545993, Final residual = 0.000371195, No Iterations 6
GAMG:  Solving for p, Initial residual = 0.0117836, Final residual = 0.000818278, No Iterations 2
time step continuity errors : sum local = 0.00211521, global = 0.000209497, cumulative = 0.0238151
smoothSolver:  Solving for omega, Initial residual = 0.00113712, Final residual = 8.28644e-05, No Iterations 5
smoothSolver:  Solving for k, Initial residual = 0.011431, Final residual = 0.000879145, No Iterations 6
ExecutionTime = 0.84 s  ClockTime = 1 s

scalarTransport execute: age
smoothSolver:  Solving for age, Initial residual = 0.0542395, Final residual = 0.00522764, No Iterations 14

Time = 62

smoothSolver:  Solving for Ux, Initial residual = 0.00887783, Final residual = 0.000593537, No Iterations 6
smoothSolver:  Solving for Uy, Initial residual = 0.00554012, Final residual = 0.000380312, No Iterations 6
GAMG:  Solving for p, Initial residual = 0.0112108, Final residual = 0.000754942, No Iterations 2
time step continuity errors : sum local = 0.00193822, global = 0.000187727, cumulative = 0.0240028
smoothSolver:  Solving for omega, Initial residual = 0.00110159, Final residual = 7.98182e-05, No Iterations 5
smoothSolver:  Solving for k, Initial residual = 0.0110465, Final residual = 0.000849593, No Iterations 6
ExecutionTime = 0.85 s  ClockTime = 1 s

scalarTransport execute: age
smoothSolver:  Solving for age, Initial residual = 0.0559797, Final residual = 0.00533247, No Iterations 13

Time = 63

smoothSolver:  Solving for Ux, Initial residual = 0.00884797, Final residual = 0.000595285, No Iterations 6
smoothSolver:  Solving for Uy, Initial residual = 0.00560295, Final residual = 0.000388214, No Iterations 6
GAMG:  Solving for p, Initial residual = 0.0107596, Final residual = 0.000702265, No Iterations 2
time step continuity errors : sum local = 0.00178898, global = 0.000165531, cumulative = 0.0241683
smoothSolver:  Solving for omega, Initial residual = 0.00107141, Final residual = 7.70214e-05, No Iterations 5
smoothSolver:  Solving for k, Initial residual = 0.0106811, Final residual = 0.000821582, No Iterations 6
ExecutionTime = 0.86 s  ClockTime = 1 s

scalarTransport execute: age
smoothSolver:  Solving for age, Initial residual = 0.0561524, Final residual = 0.00532194, No Iterations 11

Time = 64

smoothSolver:  Solving for Ux, Initial residual = 0.00880974, Final residual = 0.00059628, No Iterations 6
smoothSolver:  Solving for Uy, Initial residual = 0.00565483, Final residual = 0.00039508, No Iterations 6
GAMG:  Solving for p, Initial residual = 0.0104809, Final residual = 0.000665088, No Iterations 2
time step continuity errors : sum local = 0.00168233, global = 0.000144006, cumulative = 0.0243123
smoothSolver:  Solving for omega, Initial residual = 0.00103899, Final residual = 7.44531e-05, No Iterations 5
smoothSolver:  Solving for k, Initial residual = 0.0103323, Final residual = 0.000795047, No Iterations 6
ExecutionTime = 0.88 s  ClockTime = 1 s

scalarTransport execute: age
smoothSolver:  Solving for age, Initial residual = 0.0596792, Final residual = 0.00518084, No Iterations 11

Time = 65

smoothSolver:  Solving for Ux, Initial residual = 0.00876637, Final residual = 0.000596253, No Iterations 6
smoothSolver:  Solving for Uy, Initial residual = 0.00570186, Final residual = 0.000401066, No Iterations 6
GAMG:  Solving for p, Initial residual = 0.0102166, Final residual = 0.000638416, No Iterations 2
time step continuity errors : sum local = 0.00160298, global = 0.000123706, cumulative = 0.024436
smoothSolver:  Solving for omega, Initial residual = 0.00100976, Final residual = 7.20773e-05, No Iterations 5
smoothSolver:  Solving for k, Initial residual = 0.0100014, Final residual = 0.000769942, No Iterations 6
ExecutionTime = 0.89 s  ClockTime = 1 s

scalarTransport execute: age
smoothSolver:  Solving for age, Initial residual = 0.0621333, Final residual = 0.00540231, No Iterations 10

Time = 66

smoothSolver:  Solving for Ux, Initial residual = 0.0087145, Final residual = 0.000594986, No Iterations 6
smoothSolver:  Solving for Uy, Initial residual = 0.00573849, Final residual = 0.000406173, No Iterations 6
GAMG:  Solving for p, Initial residual = 0.0100091, Final residual = 0.000618469, No Iterations 2
time step continuity errors : sum local = 0.00154245, global = 0.000104849, cumulative = 0.0245409
smoothSolver:  Solving for omega, Initial residual = 0.000984104, Final residual = 6.98793e-05, No Iterations 5
smoothSolver:  Solving for k, Initial residual = 0.0096881, Final residual = 0.000746201, No Iterations 6
ExecutionTime = 0.9 s  ClockTime = 1 s

scalarTransport execute: age
smoothSolver:  Solving for age, Initial residual = 0.0662638, Final residual = 0.00617783, No Iterations 8

Time = 67

smoothSolver:  Solving for Ux, Initial residual = 0.00865305, Final residual = 0.000592301, No Iterations 6
smoothSolver:  Solving for Uy, Initial residual = 0.00576986, Final residual = 0.000410507, No Iterations 6
GAMG:  Solving for p, Initial residual = 0.00979868, Final residual = 0.000600686, No Iterations 2
time step continuity errors : sum local = 0.00148859, global = 8.76879e-05, cumulative = 0.0246286
smoothSolver:  Solving for omega, Initial residual = 0.000962132, Final residual = 6.78618e-05, No Iterations 5
smoothSolver:  Solving for k, Initial residual = 0.00939095, Final residual = 0.000723758, No Iterations 6
ExecutionTime = 0.91 s  ClockTime = 1 s

scalarTransport execute: age
smoothSolver:  Solving for age, Initial residual = 0.0653936, Final residual = 0.0063662, No Iterations 7

Time = 68

smoothSolver:  Solving for Ux, Initial residual = 0.0085785, Final residual = 0.000588063, No Iterations 6
smoothSolver:  Solving for Uy, Initial residual = 0.00579814, Final residual = 0.000414137, No Iterations 6
GAMG:  Solving for p, Initial residual = 0.00956525, Final residual = 0.000590053, No Iterations 2
time step continuity errors : sum local = 0.00145232, global = 7.23131e-05, cumulative = 0.0247009
smoothSolver:  Solving for omega, Initial residual = 0.000940669, Final residual = 6.6007e-05, No Iterations 5
smoothSolver:  Solving for k, Initial residual = 0.00910912, Final residual = 0.000702513, No Iterations 6
ExecutionTime = 0.93 s  ClockTime = 1 s

scalarTransport execute: age
smoothSolver:  Solving for age, Initial residual = 0.0648098, Final residual = 0.00571036, No Iterations 8

Time = 69

smoothSolver:  Solving for Ux, Initial residual = 0.00848912, Final residual = 0.000582284, No Iterations 6
smoothSolver:  Solving for Uy, Initial residual = 0.00581648, Final residual = 0.000416868, No Iterations 6
GAMG:  Solving for p, Initial residual = 0.00930004, Final residual = 0.000581645, No Iterations 2
time step continuity errors : sum local = 0.00142058, global = 5.84909e-05, cumulative = 0.0247594
smoothSolver:  Solving for omega, Initial residual = 0.000921058, Final residual = 6.4266e-05, No Iterations 5
smoothSolver:  Solving for k, Initial residual = 0.00884337, Final residual = 0.00068238, No Iterations 6
ExecutionTime = 0.94 s  ClockTime = 1 s

scalarTransport execute: age
smoothSolver:  Solving for age, Initial residual = 0.0624799, Final residual = 0.00573935, No Iterations 7

Time = 70

smoothSolver:  Solving for Ux, Initial residual = 0.0083878, Final residual = 0.000575232, No Iterations 6
smoothSolver:  Solving for Uy, Initial residual = 0.00582989, Final residual = 0.000418778, No Iterations 6
GAMG:  Solving for p, Initial residual = 0.00904772, Final residual = 0.000581578, No Iterations 2
time step continuity errors : sum local = 0.00141291, global = 5.28604e-05, cumulative = 0.0248123
smoothSolver:  Solving for omega, Initial residual = 0.000901995, Final residual = 6.26103e-05, No Iterations 5
smoothSolver:  Solving for k, Initial residual = 0.00859302, Final residual = 0.00066327, No Iterations 6
ExecutionTime = 0.95 s  ClockTime = 1 s

scalarTransport execute: age
smoothSolver:  Solving for age, Initial residual = 0.0600415, Final residual = 0.00561746, No Iterations 7

Time = 71

smoothSolver:  Solving for Ux, Initial residual = 0.00826632, Final residual = 0.000566073, No Iterations 6
smoothSolver:  Solving for Uy, Initial residual = 0.00583866, Final residual = 0.000419576, No Iterations 6
GAMG:  Solving for p, Initial residual = 0.00891271, Final residual = 0.000569264, No Iterations 2
time step continuity errors : sum local = 0.00137649, global = 4.28148e-05, cumulative = 0.0248551
smoothSolver:  Solving for omega, Initial residual = 0.000887471, Final residual = 6.10093e-05, No Iterations 5
smoothSolver:  Solving for k, Initial residual = 0.00835517, Final residual = 0.00064512, No Iterations 6
ExecutionTime = 0.97 s  ClockTime = 1 s

scalarTransport execute: age
smoothSolver:  Solving for age, Initial residual = 0.0600234, Final residual = 0.00554148, No Iterations 7

Time = 72

smoothSolver:  Solving for Ux, Initial residual = 0.00815536, Final residual = 0.000557744, No Iterations 6
smoothSolver:  Solving for Uy, Initial residual = 0.00584552, Final residual = 0.000420056, No Iterations 6
GAMG:  Solving for p, Initial residual = 0.00882027, Final residual = 0.000581901, No Iterations 2
time step continuity errors : sum local = 0.00139949, global = 4.09399e-05, cumulative = 0.024896
smoothSolver:  Solving for omega, Initial residual = 0.000867991, Final residual = 5.95e-05, No Iterations 5
smoothSolver:  Solving for k, Initial residual = 0.00813066, Final residual = 0.000627831, No Iterations 6
ExecutionTime = 0.98 s  ClockTime = 1 s

scalarTransport execute: age
smoothSolver:  Solving for age, Initial residual = 0.0606397, Final residual = 0.00562097, No Iterations 7

Time = 73

smoothSolver:  Solving for Ux, Initial residual = 0.00802355, Final residual = 0.000547325, No Iterations 6
smoothSolver:  Solving for Uy, Initial residual = 0.00583564, Final residual = 0.000419131, No Iterations 6
GAMG:  Solving for p, Initial residual = 0.00875272, Final residual = 0.000586345, No Iterations 2
time step continuity errors : sum local = 0.00140376, global = 3.96765e-05, cumulative = 0.0249357
smoothSolver:  Solving for omega, Initial residual = 0.000853255, Final residual = 5.7978e-05, No Iterations 5
smoothSolver:  Solving for k, Initial residual = 0.00791528, Final residual = 0.000611333, No Iterations 6
ExecutionTime = 0.99 s  ClockTime = 1 s

scalarTransport execute: age
smoothSolver:  Solving for age, Initial residual = 0.0596378, Final residual = 0.00576866, No Iterations 7

Time = 74

smoothSolver:  Solving for Ux, Initial residual = 0.00789236, Final residual = 0.000536588, No Iterations 6
smoothSolver:  Solving for Uy, Initial residual = 0.0058177, Final residual = 0.000417237, No Iterations 6
GAMG:  Solving for p, Initial residual = 0.00870759, Final residual = 0.000575438, No Iterations 2
time step continuity errors : sum local = 0.00137109, global = 3.12391e-05, cumulative = 0.0249669
smoothSolver:  Solving for omega, Initial residual = 0.000836565, Final residual = 5.65401e-05, No Iterations 5
smoothSolver:  Solving for k, Initial residual = 0.00771057, Final residual = 0.000595548, No Iterations 6
ExecutionTime = 1.01 s  ClockTime = 1 s

scalarTransport execute: age
smoothSolver:  Solving for age, Initial residual = 0.0587621, Final residual = 0.00524109, No Iterations 8

Time = 75

smoothSolver:  Solving for Ux, Initial residual = 0.00776631, Final residual = 0.000526594, No Iterations 6
smoothSolver:  Solving for Uy, Initial residual = 0.00578971, Final residual = 0.000414586, No Iterations 6
GAMG:  Solving for p, Initial residual = 0.00867169, Final residual = 0.000584617, No Iterations 2
time step continuity errors : sum local = 0.00138563, global = 3.05832e-05, cumulative = 0.0249975
smoothSolver:  Solving for omega, Initial residual = 0.000815205, Final residual = 5.51676e-05, No Iterations 5
smoothSolver:  Solving for k, Initial residual = 0.00751716, Final residual = 0.000580407, No Iterations 6
ExecutionTime = 1.02 s  ClockTime = 1 s

scalarTransport execute: age
smoothSolver:  Solving for age, Initial residual = 0.0570243, Final residual = 0.00566653, No Iterations 8

Time = 76

smoothSolver:  Solving for Ux, Initial residual = 0.00761592, Final residual = 0.000514215, No Iterations 6
smoothSolver:  Solving for Uy, Initial residual = 0.0057484, Final residual = 0.000410392, No Iterations 6
GAMG:  Solving for p, Initial residual = 0.00862898, Final residual = 0.000577132, No Iterations 2
time step continuity errors : sum local = 0.00136179, global = 2.01904e-05, cumulative = 0.0250177
smoothSolver:  Solving for omega, Initial residual = 0.000802134, Final residual = 5.37981e-05, No Iterations 5
smoothSolver:  Solving for k, Initial residual = 0.00732987, Final residual = 0.000565858, No Iterations 6
ExecutionTime = 1.03 s  ClockTime = 1 s

scalarTransport execute: age
smoothSolver:  Solving for age, Initial residual = 0.0538334, Final residual = 0.00512855, No Iterations 9

Time = 77

smoothSolver:  Solving for Ux, Initial residual = 0.00747405, Final residual = 0.00050253, No Iterations 6
smoothSolver:  Solving for Uy, Initial residual = 0.00569855, Final residual = 0.000405398, No Iterations 6
GAMG:  Solving for p, Initial residual = 0.00857737, Final residual = 0.000586353, No Iterations 2
time step continuity errors : sum local = 0.00137724, global = 1.90046e-05, cumulative = 0.0250367
smoothSolver:  Solving for omega, Initial residual = 0.000781014, Final residual = 5.24841e-05, No Iterations 5
smoothSolver:  Solving for k, Initial residual = 0.00715285, Final residual = 0.000551821, No Iterations 6
ExecutionTime = 1.04 s  ClockTime = 1 s

scalarTransport execute: age
smoothSolver:  Solving for age, Initial residual = 0.0501203, Final residual = 0.00454421, No Iterations 10

Time = 78

smoothSolver:  Solving for Ux, Initial residual = 0.0073091, Final residual = 0.000488732, No Iterations 6
smoothSolver:  Solving for Uy, Initial residual = 0.00563693, Final residual = 0.000399058, No Iterations 6
GAMG:  Solving for p, Initial residual = 0.0085103, Final residual = 0.000584705, No Iterations 2
time step continuity errors : sum local = 0.00136847, global = 1.69081e-05, cumulative = 0.0250536
smoothSolver:  Solving for omega, Initial residual = 0.000766445, Final residual = 5.11116e-05, No Iterations 5
smoothSolver:  Solving for k, Initial residual = 0.00698285, Final residual = 0.000538267, No Iterations 6
ExecutionTime = 1.06 s  ClockTime = 1 s

scalarTransport execute: age
smoothSolver:  Solving for age, Initial residual = 0.0458662, Final residual = 0.00458583, No Iterations 10

Time = 79

smoothSolver:  Solving for Ux, Initial residual = 0.00714159, Final residual = 0.000474648, No Iterations 6
smoothSolver:  Solving for Uy, Initial residual = 0.005567, Final residual = 0.000391846, No Iterations 6
GAMG:  Solving for p, Initial residual = 0.0084635, Final residual = 0.000579691, No Iterations 2
time step continuity errors : sum local = 0.00135232, global = 1.67216e-05, cumulative = 0.0250703
smoothSolver:  Solving for omega, Initial residual = 0.000747532, Final residual = 4.97345e-05, No Iterations 5
smoothSolver:  Solving for k, Initial residual = 0.00682172, Final residual = 0.00052513, No Iterations 6
ExecutionTime = 1.07 s  ClockTime = 1 s

scalarTransport execute: age
smoothSolver:  Solving for age, Initial residual = 0.0420974, Final residual = 0.00390261, No Iterations 11

Time = 80

smoothSolver:  Solving for Ux, Initial residual = 0.00697022, Final residual = 0.000460434, No Iterations 6
smoothSolver:  Solving for Uy, Initial residual = 0.00548554, Final residual = 0.000383825, No Iterations 6
GAMG:  Solving for p, Initial residual = 0.00845375, Final residual = 0.000573688, No Iterations 2
time step continuity errors : sum local = 0.00133424, global = 1.61755e-05, cumulative = 0.0250865
smoothSolver:  Solving for omega, Initial residual = 0.000728246, Final residual = 4.83083e-05, No Iterations 5
smoothSolver:  Solving for k, Initial residual = 0.00666545, Final residual = 0.000512336, No Iterations 6
ExecutionTime = 1.08 s  ClockTime = 1 s

scalarTransport execute: age
smoothSolver:  Solving for age, Initial residual = 0.0390209, Final residual = 0.00374619, No Iterations 11

Time = 81

smoothSolver:  Solving for Ux, Initial residual = 0.00679599, Final residual = 0.000446177, No Iterations 6
smoothSolver:  Solving for Uy, Initial residual = 0.00539595, Final residual = 0.00037498, No Iterations 6
GAMG:  Solving for p, Initial residual = 0.00846124, Final residual = 0.000567028, No Iterations 2
time step continuity errors : sum local = 0.00131496, global = 1.53757e-05, cumulative = 0.0251019
smoothSolver:  Solving for omega, Initial residual = 0.000710413, Final residual = 4.69047e-05, No Iterations 5
smoothSolver:  Solving for k, Initial residual = 0.00651426, Final residual = 0.000499835, No Iterations 6
ExecutionTime = 1.1 s  ClockTime = 1 s

scalarTransport execute: age
smoothSolver:  Solving for age, Initial residual = 0.0367159, Final residual = 0.00348963, No Iterations 11

Time = 82

smoothSolver:  Solving for Ux, Initial residual = 0.00662177, Final residual = 0.000431788, No Iterations 6
smoothSolver:  Solving for Uy, Initial residual = 0.00529752, Final residual = 0.000365235, No Iterations 6
GAMG:  Solving for p, Initial residual = 0.00848338, Final residual = 0.000559846, No Iterations 2
time step continuity errors : sum local = 0.00129427, global = 1.4006e-05, cumulative = 0.0251159
smoothSolver:  Solving for omega, Initial residual = 0.000691842, Final residual = 4.55068e-05, No Iterations 5
smoothSolver:  Solving for k, Initial residual = 0.00636726, Final residual = 0.000487524, No Iterations 6
ExecutionTime = 1.11 s  ClockTime = 1 s

scalarTransport execute: age
smoothSolver:  Solving for age, Initial residual = 0.0347699, Final residual = 0.0033172, No Iterations 11

Time = 83

smoothSolver:  Solving for Ux, Initial residual = 0.00644595, Final residual = 0.000643881, No Iterations 5
smoothSolver:  Solving for Uy, Initial residual = 0.00518706, Final residual = 0.000354662, No Iterations 6
GAMG:  Solving for p, Initial residual = 0.00836993, Final residual = 0.000546761, No Iterations 2
time step continuity errors : sum local = 0.00125997, global = 1.2249e-05, cumulative = 0.0251281
smoothSolver:  Solving for omega, Initial residual = 0.000670736, Final residual = 4.40166e-05, No Iterations 5
smoothSolver:  Solving for k, Initial residual = 0.00622273, Final residual = 0.00047543, No Iterations 6
ExecutionTime = 1.12 s  ClockTime = 1 s

scalarTransport execute: age
smoothSolver:  Solving for age, Initial residual = 0.0335228, Final residual = 0.00319096, No Iterations 11

Time = 84

smoothSolver:  Solving for Ux, Initial residual = 0.0063036, Final residual = 0.000626005, No Iterations 5
smoothSolver:  Solving for Uy, Initial residual = 0.00503522, Final residual = 0.000341554, No Iterations 6
GAMG:  Solving for p, Initial residual = 0.00837989, Final residual = 0.000539221, No Iterations 2
time step continuity errors : sum local = 0.00123945, global = 1.08337e-05, cumulative = 0.025139
smoothSolver:  Solving for omega, Initial residual = 0.00065099, Final residual = 4.25121e-05, No Iterations 5
smoothSolver:  Solving for k, Initial residual = 0.00607926, Final residual = 0.000463387, No Iterations 6
ExecutionTime = 1.14 s  ClockTime = 1 s

scalarTransport execute: age
smoothSolver:  Solving for age, Initial residual = 0.0324753, Final residual = 0.00319143, No Iterations 11

Time = 85

smoothSolver:  Solving for Ux, Initial residual = 0.00614424, Final residual = 0.00060688, No Iterations 5
smoothSolver:  Solving for Uy, Initial residual = 0.00488894, Final residual = 0.000328504, No Iterations 6
GAMG:  Solving for p, Initial residual = 0.0083673, Final residual = 0.000534462, No Iterations 2
time step continuity errors : sum local = 0.00122459, global = 9.25176e-06, cumulative = 0.0251482
smoothSolver:  Solving for omega, Initial residual = 0.000629046, Final residual = 4.09363e-05, No Iterations 5
smoothSolver:  Solving for k, Initial residual = 0.00593598, Final residual = 0.000451369, No Iterations 6
ExecutionTime = 1.15 s  ClockTime = 1 s

scalarTransport execute: age
smoothSolver:  Solving for age, Initial residual = 0.0312577, Final residual = 0.00279387, No Iterations 12

Time = 86

smoothSolver:  Solving for Ux, Initial residual = 0.00596843, Final residual = 0.000586108, No Iterations 5
smoothSolver:  Solving for Uy, Initial residual = 0.00474322, Final residual = 0.000315589, No Iterations 6
GAMG:  Solving for p, Initial residual = 0.00831782, Final residual = 0.000529588, No Iterations 2
time step continuity errors : sum local = 0.00120715, global = 6.83375e-06, cumulative = 0.0251551
smoothSolver:  Solving for omega, Initial residual = 0.000608836, Final residual = 3.93962e-05, No Iterations 5
smoothSolver:  Solving for k, Initial residual = 0.00579194, Final residual = 0.000439284, No Iterations 6
ExecutionTime = 1.16 s  ClockTime = 1 s

scalarTransport execute: age
smoothSolver:  Solving for age, Initial residual = 0.029821, Final residual = 0.00279675, No Iterations 12

Time = 87

smoothSolver:  Solving for Ux, Initial residual = 0.0057796, Final residual = 0.000563802, No Iterations 5
smoothSolver:  Solving for Uy, Initial residual = 0.00459146, Final residual = 0.000302368, No Iterations 6
GAMG:  Solving for p, Initial residual = 0.00826782, Final residual = 0.000524761, No Iterations 2
time step continuity errors : sum local = 0.00119066, global = 3.75696e-06, cumulative = 0.0251588
smoothSolver:  Solving for omega, Initial residual = 0.000589023, Final residual = 3.78794e-05, No Iterations 5
smoothSolver:  Solving for k, Initial residual = 0.00564648, Final residual = 0.00042711, No Iterations 6
ExecutionTime = 1.17 s  ClockTime = 1 s

scalarTransport execute: age
smoothSolver:  Solving for age, Initial residual = 0.0281078, Final residual = 0.0027544, No Iterations 12

Time = 88

smoothSolver:  Solving for Ux, Initial residual = 0.00558175, Final residual = 0.000540443, No Iterations 5
smoothSolver:  Solving for Uy, Initial residual = 0.00443682, Final residual = 0.0004434, No Iterations 5
GAMG:  Solving for p, Initial residual = 0.00813051, Final residual = 0.000516009, No Iterations 2
time step continuity errors : sum local = 0.00116592, global = 6.11967e-07, cumulative = 0.0251594
smoothSolver:  Solving for omega, Initial residual = 0.00056913, Final residual = 3.63506e-05, No Iterations 5
smoothSolver:  Solving for k, Initial residual = 0.00549783, Final residual = 0.000414749, No Iterations 6
ExecutionTime = 1.19 s  ClockTime = 1 s

scalarTransport execute: age
smoothSolver:  Solving for age, Initial residual = 0.0262392, Final residual = 0.00231328, No Iterations 13

Time = 89

smoothSolver:  Solving for Ux, Initial residual = 0.00535584, Final residual = 0.000514777, No Iterations 5
smoothSolver:  Solving for Uy, Initial residual = 0.00430665, Final residual = 0.000426639, No Iterations 5
GAMG:  Solving for p, Initial residual = 0.007936, Final residual = 0.000505294, No Iterations 2
time step continuity errors : sum local = 0.00113897, global = -2.63289e-06, cumulative = 0.0251568
smoothSolver:  Solving for omega, Initial residual = 0.000547265, Final residual = 3.48032e-05, No Iterations 5
smoothSolver:  Solving for k, Initial residual = 0.00534784, Final residual = 0.000402269, No Iterations 6
ExecutionTime = 1.2 s  ClockTime = 1 s

scalarTransport execute: age
smoothSolver:  Solving for age, Initial residual = 0.0243808, Final residual = 0.00220953, No Iterations 13

Time = 90

smoothSolver:  Solving for Ux, Initial residual = 0.00513483, Final residual = 0.000489875, No Iterations 5
smoothSolver:  Solving for Uy, Initial residual = 0.00416166, Final residual = 0.000408105, No Iterations 5
GAMG:  Solving for p, Initial residual = 0.00773186, Final residual = 0.0004948, No Iterations 2
time step continuity errors : sum local = 0.00111344, global = -5.85854e-06, cumulative = 0.0251509
smoothSolver:  Solving for omega, Initial residual = 0.000527765, Final residual = 3.33072e-05, No Iterations 5
smoothSolver:  Solving for k, Initial residual = 0.00519429, Final residual = 0.000389587, No Iterations 6
ExecutionTime = 1.21 s  ClockTime = 1 s

scalarTransport execute: age
smoothSolver:  Solving for age, Initial residual = 0.0228413, Final residual = 0.0021139, No Iterations 13

Time = 91

smoothSolver:  Solving for Ux, Initial residual = 0.00491839, Final residual = 0.000465625, No Iterations 5
smoothSolver:  Solving for Uy, Initial residual = 0.00400438, Final residual = 0.000388075, No Iterations 5
GAMG:  Solving for p, Initial residual = 0.00755194, Final residual = 0.000486308, No Iterations 2
time step continuity errors : sum local = 0.00109132, global = -2.49904e-06, cumulative = 0.0251484
smoothSolver:  Solving for omega, Initial residual = 0.000508444, Final residual = 3.18924e-05, No Iterations 5
smoothSolver:  Solving for k, Initial residual = 0.00503716, Final residual = 0.000376715, No Iterations 6
ExecutionTime = 1.23 s  ClockTime = 1 s

scalarTransport execute: age
smoothSolver:  Solving for age, Initial residual = 0.0215574, Final residual = 0.00203075, No Iterations 13

Time = 92

smoothSolver:  Solving for Ux, Initial residual = 0.00469349, Final residual = 0.000441188, No Iterations 5
smoothSolver:  Solving for Uy, Initial residual = 0.00384203, Final residual = 0.00036773, No Iterations 5
GAMG:  Solving for p, Initial residual = 0.00735032, Final residual = 0.000471185, No Iterations 2
time step continuity errors : sum local = 0.00105485, global = -4.06576e-06, cumulative = 0.0251444
smoothSolver:  Solving for omega, Initial residual = 0.000493979, Final residual = 3.05362e-05, No Iterations 5
smoothSolver:  Solving for k, Initial residual = 0.00487745, Final residual = 0.000363636, No Iterations 6
ExecutionTime = 1.24 s  ClockTime = 1 s

scalarTransport execute: age
smoothSolver:  Solving for age, Initial residual = 0.0205047, Final residual = 0.0019869, No Iterations 13

Time = 93

smoothSolver:  Solving for Ux, Initial residual = 0.00447631, Final residual = 0.00041828, No Iterations 5
smoothSolver:  Solving for Uy, Initial residual = 0.00367477, Final residual = 0.000347565, No Iterations 5
GAMG:  Solving for p, Initial residual = 0.00713325, Final residual = 0.000456171, No Iterations 2
time step continuity errors : sum local = 0.00101855, global = -4.45071e-06, cumulative = 0.0251399
smoothSolver:  Solving for omega, Initial residual = 0.000473835, Final residual = 2.92407e-05, No Iterations 5
smoothSolver:  Solving for k, Initial residual = 0.00471351, Final residual = 0.000350382, No Iterations 6
ExecutionTime = 1.25 s  ClockTime = 1 s

scalarTransport execute: age
smoothSolver:  Solving for age, Initial residual = 0.0194948, Final residual = 0.00193883, No Iterations 13

Time = 94

smoothSolver:  Solving for Ux, Initial residual = 0.00426229, Final residual = 0.000395585, No Iterations 5
smoothSolver:  Solving for Uy, Initial residual = 0.00351582, Final residual = 0.000328362, No Iterations 5
GAMG:  Solving for p, Initial residual = 0.00693255, Final residual = 0.000440947, No Iterations 2
time step continuity errors : sum local = 0.000982454, global = -5.03998e-08, cumulative = 0.0251399
smoothSolver:  Solving for omega, Initial residual = 0.000451403, Final residual = 2.7981e-05, No Iterations 5
smoothSolver:  Solving for k, Initial residual = 0.00454893, Final residual = 0.000337015, No Iterations 6
ExecutionTime = 1.27 s  ClockTime = 1 s

scalarTransport execute: age
smoothSolver:  Solving for age, Initial residual = 0.0184218, Final residual = 0.00164076, No Iterations 14

Time = 95

smoothSolver:  Solving for Ux, Initial residual = 0.00404607, Final residual = 0.000372862, No Iterations 5
smoothSolver:  Solving for Uy, Initial residual = 0.00335767, Final residual = 0.00031041, No Iterations 5
GAMG:  Solving for p, Initial residual = 0.00677123, Final residual = 0.000421754, No Iterations 2
time step continuity errors : sum local = 0.000938027, global = 3.20927e-06, cumulative = 0.0251431
smoothSolver:  Solving for omega, Initial residual = 0.000440216, Final residual = 4.33078e-05, No Iterations 4
smoothSolver:  Solving for k, Initial residual = 0.00438334, Final residual = 0.000323612, No Iterations 6
ExecutionTime = 1.28 s  ClockTime = 1 s

scalarTransport execute: age
smoothSolver:  Solving for age, Initial residual = 0.0173844, Final residual = 0.00154096, No Iterations 14

Time = 96

[...]

Time = 636

smoothSolver:  Solving for Ux, Initial residual = 1.18805e-06, Final residual = 9.98423e-08, No Iterations 5
smoothSolver:  Solving for Uy, Initial residual = 6.57438e-07, Final residual = 5.94393e-08, No Iterations 5
GAMG:  Solving for p, Initial residual = 1.69056e-06, Final residual = 1.32478e-07, No Iterations 2
time step continuity errors : sum local = 3.19721e-07, global = 2.61517e-09, cumulative = 0.0228231
smoothSolver:  Solving for omega, Initial residual = 9.00752e-08, Final residual = 8.18148e-09, No Iterations 4
smoothSolver:  Solving for k, Initial residual = 2.17119e-07, Final residual = 1.92278e-08, No Iterations 5
ExecutionTime = 8.12 s  ClockTime = 8 s

scalarTransport execute: age
smoothSolver:  Solving for age, Initial residual = 0.000165529, Final residual = 1.458e-05, No Iterations 15

Time = 637

smoothSolver:  Solving for Ux, Initial residual = 1.16159e-06, Final residual = 9.75983e-08, No Iterations 5
smoothSolver:  Solving for Uy, Initial residual = 6.43058e-07, Final residual = 5.81525e-08, No Iterations 5
GAMG:  Solving for p, Initial residual = 1.65482e-06, Final residual = 1.29459e-07, No Iterations 2
time step continuity errors : sum local = 3.12436e-07, global = 2.41712e-09, cumulative = 0.0228231
smoothSolver:  Solving for omega, Initial residual = 8.82782e-08, Final residual = 8.02394e-09, No Iterations 4
smoothSolver:  Solving for k, Initial residual = 2.1429e-07, Final residual = 1.90252e-08, No Iterations 5
ExecutionTime = 8.13 s  ClockTime = 8 s

scalarTransport execute: age
smoothSolver:  Solving for age, Initial residual = 0.000165214, Final residual = 1.45532e-05, No Iterations 15

Time = 638

smoothSolver:  Solving for Ux, Initial residual = 1.13549e-06, Final residual = 9.53854e-08, No Iterations 5
smoothSolver:  Solving for Uy, Initial residual = 6.28867e-07, Final residual = 5.68824e-08, No Iterations 5
GAMG:  Solving for p, Initial residual = 1.61956e-06, Final residual = 1.26483e-07, No Iterations 2
time step continuity errors : sum local = 3.05253e-07, global = 2.22397e-09, cumulative = 0.0228231
smoothSolver:  Solving for omega, Initial residual = 8.65115e-08, Final residual = 7.86818e-09, No Iterations 4
smoothSolver:  Solving for k, Initial residual = 2.11478e-07, Final residual = 1.88233e-08, No Iterations 5
ExecutionTime = 8.15 s  ClockTime = 8 s

scalarTransport execute: age
smoothSolver:  Solving for age, Initial residual = 0.000164911, Final residual = 1.45277e-05, No Iterations 15

Time = 639

smoothSolver:  Solving for Ux, Initial residual = 1.10975e-06, Final residual = 9.32035e-08, No Iterations 5
smoothSolver:  Solving for Uy, Initial residual = 6.14861e-07, Final residual = 5.56292e-08, No Iterations 5
GAMG:  Solving for p, Initial residual = 1.58478e-06, Final residual = 1.23548e-07, No Iterations 2
time step continuity errors : sum local = 2.9817e-07, global = 2.03531e-09, cumulative = 0.0228231
smoothSolver:  Solving for omega, Initial residual = 8.47654e-08, Final residual = 7.7142e-09, No Iterations 4
smoothSolver:  Solving for k, Initial residual = 2.08685e-07, Final residual = 1.86217e-08, No Iterations 5
ExecutionTime = 8.16 s  ClockTime = 8 s

scalarTransport execute: age
smoothSolver:  Solving for age, Initial residual = 0.00016455, Final residual = 1.45013e-05, No Iterations 15

Time = 640

smoothSolver:  Solving for Ux, Initial residual = 1.08437e-06, Final residual = 9.10523e-08, No Iterations 5
smoothSolver:  Solving for Uy, Initial residual = 6.01043e-07, Final residual = 5.43928e-08, No Iterations 5
GAMG:  Solving for p, Initial residual = 1.55045e-06, Final residual = 1.20655e-07, No Iterations 2
time step continuity errors : sum local = 2.91188e-07, global = 1.85077e-09, cumulative = 0.0228231
smoothSolver:  Solving for omega, Initial residual = 8.30429e-08, Final residual = 7.56199e-09, No Iterations 4
smoothSolver:  Solving for k, Initial residual = 2.05917e-07, Final residual = 1.84206e-08, No Iterations 5
ExecutionTime = 8.17 s  ClockTime = 8 s

scalarTransport execute: age
smoothSolver:  Solving for age, Initial residual = 0.000164162, Final residual = 1.44734e-05, No Iterations 15

Time = 641

smoothSolver:  Solving for Ux, Initial residual = 1.05934e-06, Final residual = 8.8932e-08, No Iterations 5
smoothSolver:  Solving for Uy, Initial residual = 5.87411e-07, Final residual = 5.31734e-08, No Iterations 5
GAMG:  Solving for p, Initial residual = 1.51657e-06, Final residual = 1.17804e-07, No Iterations 2
time step continuity errors : sum local = 2.84307e-07, global = 1.67009e-09, cumulative = 0.0228231
smoothSolver:  Solving for omega, Initial residual = 8.13521e-08, Final residual = 7.41155e-09, No Iterations 4
smoothSolver:  Solving for k, Initial residual = 2.03176e-07, Final residual = 1.82199e-08, No Iterations 5
ExecutionTime = 8.18 s  ClockTime = 8 s

scalarTransport execute: age
smoothSolver:  Solving for age, Initial residual = 0.000163787, Final residual = 1.44459e-05, No Iterations 15

Time = 642

smoothSolver:  Solving for Ux, Initial residual = 1.03468e-06, Final residual = 8.68423e-08, No Iterations 5
smoothSolver:  Solving for Uy, Initial residual = 5.73969e-07, Final residual = 5.19707e-08, No Iterations 5
GAMG:  Solving for p, Initial residual = 1.48315e-06, Final residual = 1.14995e-07, No Iterations 2
time step continuity errors : sum local = 2.77527e-07, global = 1.49312e-09, cumulative = 0.0228231
smoothSolver:  Solving for omega, Initial residual = 7.96821e-08, Final residual = 7.2629e-09, No Iterations 4
smoothSolver:  Solving for k, Initial residual = 2.0046e-07, Final residual = 1.802e-08, No Iterations 5
ExecutionTime = 8.2 s  ClockTime = 8 s

scalarTransport execute: age
smoothSolver:  Solving for age, Initial residual = 0.000163436, Final residual = 1.44185e-05, No Iterations 15

Time = 643

smoothSolver:  Solving for Ux, Initial residual = 1.01036e-06, Final residual = 8.47833e-08, No Iterations 5
smoothSolver:  Solving for Uy, Initial residual = 5.6072e-07, Final residual = 5.07849e-08, No Iterations 5
GAMG:  Solving for p, Initial residual = 1.4502e-06, Final residual = 1.12228e-07, No Iterations 2
time step continuity errors : sum local = 2.70849e-07, global = 1.31979e-09, cumulative = 0.0228231
smoothSolver:  Solving for omega, Initial residual = 7.80333e-08, Final residual = 7.11605e-09, No Iterations 4
smoothSolver:  Solving for k, Initial residual = 1.97769e-07, Final residual = 1.7822e-08, No Iterations 5
ExecutionTime = 8.21 s  ClockTime = 8 s

scalarTransport execute: age
smoothSolver:  Solving for age, Initial residual = 0.000163182, Final residual = 1.43914e-05, No Iterations 15

Time = 644

smoothSolver:  Solving for Ux, Initial residual = 9.86406e-07, Final residual = 8.27547e-08, No Iterations 5
smoothSolver:  Solving for Uy, Initial residual = 5.47666e-07, Final residual = 4.96157e-08, No Iterations 5
GAMG:  Solving for p, Initial residual = 1.41771e-06, Final residual = 1.09502e-07, No Iterations 2
time step continuity errors : sum local = 2.6427e-07, global = 1.15013e-09, cumulative = 0.0228231
smoothSolver:  Solving for omega, Initial residual = 7.64077e-08, Final residual = 6.97102e-09, No Iterations 4
smoothSolver:  Solving for k, Initial residual = 1.95099e-07, Final residual = 1.76257e-08, No Iterations 5
ExecutionTime = 8.22 s  ClockTime = 8 s

scalarTransport execute: age
smoothSolver:  Solving for age, Initial residual = 0.000162945, Final residual = 1.43654e-05, No Iterations 15

Time = 645

smoothSolver:  Solving for Ux, Initial residual = 9.62799e-07, Final residual = 8.07563e-08, No Iterations 5
smoothSolver:  Solving for Uy, Initial residual = 5.34804e-07, Final residual = 4.84632e-08, No Iterations 5
GAMG:  Solving for p, Initial residual = 1.38568e-06, Final residual = 1.07136e-07, No Iterations 2
time step continuity errors : sum local = 2.58561e-07, global = 1.43802e-09, cumulative = 0.0228231
smoothSolver:  Solving for omega, Initial residual = 7.48979e-08, Final residual = 6.82974e-09, No Iterations 4
smoothSolver:  Solving for k, Initial residual = 1.92505e-07, Final residual = 1.74309e-08, No Iterations 5
ExecutionTime = 8.23 s  ClockTime = 8 s

scalarTransport execute: age
smoothSolver:  Solving for age, Initial residual = 0.000162711, Final residual = 1.43407e-05, No Iterations 15

Time = 646

smoothSolver:  Solving for Ux, Initial residual = 9.38782e-07, Final residual = 7.87225e-08, No Iterations 5
smoothSolver:  Solving for Uy, Initial residual = 5.22243e-07, Final residual = 4.73504e-08, No Iterations 5
GAMG:  Solving for p, Initial residual = 1.35503e-06, Final residual = 1.05006e-07, No Iterations 2
time step continuity errors : sum local = 2.5342e-07, global = 1.78317e-09, cumulative = 0.0228231
smoothSolver:  Solving for omega, Initial residual = 7.33391e-08, Final residual = 6.69005e-09, No Iterations 4
smoothSolver:  Solving for k, Initial residual = 1.89878e-07, Final residual = 1.72368e-08, No Iterations 5
ExecutionTime = 8.24 s  ClockTime = 8 s

scalarTransport execute: age
smoothSolver:  Solving for age, Initial residual = 0.000162473, Final residual = 1.4318e-05, No Iterations 15

Time = 647

smoothSolver:  Solving for Ux, Initial residual = 9.15682e-07, Final residual = 7.6761e-08, No Iterations 5
smoothSolver:  Solving for Uy, Initial residual = 5.09801e-07, Final residual = 4.62434e-08, No Iterations 5
GAMG:  Solving for p, Initial residual = 1.32468e-06, Final residual = 1.02816e-07, No Iterations 2
time step continuity errors : sum local = 2.48134e-07, global = -9.18697e-10, cumulative = 0.0228231
smoothSolver:  Solving for omega, Initial residual = 7.17797e-08, Final residual = 6.54519e-09, No Iterations 4
smoothSolver:  Solving for k, Initial residual = 1.87048e-07, Final residual = 1.70387e-08, No Iterations 5
ExecutionTime = 8.26 s  ClockTime = 8 s

scalarTransport execute: age
smoothSolver:  Solving for age, Initial residual = 0.000162232, Final residual = 1.42973e-05, No Iterations 15

Time = 648

smoothSolver:  Solving for Ux, Initial residual = 8.95186e-07, Final residual = 7.50668e-08, No Iterations 5
smoothSolver:  Solving for Uy, Initial residual = 4.97236e-07, Final residual = 4.50683e-08, No Iterations 5
GAMG:  Solving for p, Initial residual = 1.2905e-06, Final residual = 9.89183e-08, No Iterations 2
time step continuity errors : sum local = 2.38727e-07, global = -9.39728e-10, cumulative = 0.0228231
smoothSolver:  Solving for omega, Initial residual = 7.06742e-08, Final residual = 6.40649e-09, No Iterations 4
smoothSolver:  Solving for k, Initial residual = 1.84763e-07, Final residual = 1.68476e-08, No Iterations 5
ExecutionTime = 8.27 s  ClockTime = 8 s

scalarTransport execute: age
smoothSolver:  Solving for age, Initial residual = 0.000161989, Final residual = 1.42786e-05, No Iterations 15

Time = 649

smoothSolver:  Solving for Ux, Initial residual = 8.71759e-07, Final residual = 7.3069e-08, No Iterations 5
smoothSolver:  Solving for Uy, Initial residual = 4.85476e-07, Final residual = 4.4003e-08, No Iterations 5
GAMG:  Solving for p, Initial residual = 1.26099e-06, Final residual = 9.63275e-08, No Iterations 2
time step continuity errors : sum local = 2.32474e-07, global = -1.83896e-10, cumulative = 0.0228231
smoothSolver:  Solving for omega, Initial residual = 6.89138e-08, Final residual = 6.27583e-09, No Iterations 4
smoothSolver:  Solving for k, Initial residual = 1.82192e-07, Final residual = 1.66577e-08, No Iterations 5
ExecutionTime = 8.28 s  ClockTime = 8 s

scalarTransport execute: age
smoothSolver:  Solving for age, Initial residual = 0.000161755, Final residual = 1.42612e-05, No Iterations 15

Time = 650

smoothSolver:  Solving for Ux, Initial residual = 8.49627e-07, Final residual = 7.11552e-08, No Iterations 5
smoothSolver:  Solving for Uy, Initial residual = 4.73729e-07, Final residual = 4.29783e-08, No Iterations 5
GAMG:  Solving for p, Initial residual = 1.2325e-06, Final residual = 9.43348e-08, No Iterations 2
time step continuity errors : sum local = 2.27665e-07, global = 3.79502e-10, cumulative = 0.0228231
smoothSolver:  Solving for omega, Initial residual = 6.72469e-08, Final residual = 6.14116e-09, No Iterations 4
smoothSolver:  Solving for k, Initial residual = 1.79633e-07, Final residual = 1.64687e-08, No Iterations 5
ExecutionTime = 8.29 s  ClockTime = 8 s

scalarTransport execute: age
smoothSolver:  Solving for age, Initial residual = 0.000161539, Final residual = 1.42445e-05, No Iterations 15

Time = 651

smoothSolver:  Solving for Ux, Initial residual = 8.27808e-07, Final residual = 6.93135e-08, No Iterations 5
smoothSolver:  Solving for Uy, Initial residual = 4.62099e-07, Final residual = 4.19372e-08, No Iterations 5
GAMG:  Solving for p, Initial residual = 1.20512e-06, Final residual = 9.24493e-08, No Iterations 2
time step continuity errors : sum local = 2.23115e-07, global = 8.59042e-10, cumulative = 0.0228231
smoothSolver:  Solving for omega, Initial residual = 6.57217e-08, Final residual = 6.00869e-09, No Iterations 4
smoothSolver:  Solving for k, Initial residual = 1.77132e-07, Final residual = 1.62801e-08, No Iterations 5
ExecutionTime = 8.31 s  ClockTime = 8 s

scalarTransport execute: age
smoothSolver:  Solving for age, Initial residual = 0.000161322, Final residual = 1.42276e-05, No Iterations 15

Time = 652

smoothSolver:  Solving for Ux, Initial residual = 8.0665e-07, Final residual = 6.75243e-08, No Iterations 5
smoothSolver:  Solving for Uy, Initial residual = 4.50327e-07, Final residual = 4.08866e-08, No Iterations 5
GAMG:  Solving for p, Initial residual = 1.17694e-06, Final residual = 9.0389e-08, No Iterations 2
time step continuity errors : sum local = 2.18142e-07, global = -1.47916e-09, cumulative = 0.0228231
smoothSolver:  Solving for omega, Initial residual = 6.43399e-08, Final residual = 5.87278e-09, No Iterations 4
smoothSolver:  Solving for k, Initial residual = 1.74459e-07, Final residual = 1.60878e-08, No Iterations 5
ExecutionTime = 8.32 s  ClockTime = 8 s

scalarTransport execute: age
smoothSolver:  Solving for age, Initial residual = 0.000161043, Final residual = 1.42101e-05, No Iterations 15

Time = 653

smoothSolver:  Solving for Ux, Initial residual = 7.87689e-07, Final residual = 6.59572e-08, No Iterations 5
smoothSolver:  Solving for Uy, Initial residual = 4.38435e-07, Final residual = 3.9785e-08, No Iterations 5
GAMG:  Solving for p, Initial residual = 1.1448e-06, Final residual = 8.66784e-08, No Iterations 2
time step continuity errors : sum local = 2.09187e-07, global = -1.45228e-09, cumulative = 0.0228231
smoothSolver:  Solving for omega, Initial residual = 6.31828e-08, Final residual = 9.799e-09, No Iterations 3
smoothSolver:  Solving for k, Initial residual = 1.72524e-07, Final residual = 1.59263e-08, No Iterations 5
ExecutionTime = 8.33 s  ClockTime = 8 s

scalarTransport execute: age
smoothSolver:  Solving for age, Initial residual = 0.000160765, Final residual = 1.41915e-05, No Iterations 15

Time = 654

smoothSolver:  Solving for Ux, Initial residual = 7.65754e-07, Final residual = 6.40862e-08, No Iterations 5
smoothSolver:  Solving for Uy, Initial residual = 4.27615e-07, Final residual = 3.87993e-08, No Iterations 5
GAMG:  Solving for p, Initial residual = 1.11752e-06, Final residual = 8.41815e-08, No Iterations 2
time step continuity errors : sum local = 2.03161e-07, global = -7.55981e-10, cumulative = 0.0228231
smoothSolver:  Solving for omega, Initial residual = 6.26899e-08, Final residual = 9.79398e-09, No Iterations 3
smoothSolver:  Solving for k, Initial residual = 1.7034e-07, Final residual = 1.57675e-08, No Iterations 5
ExecutionTime = 8.34 s  ClockTime = 8 s

scalarTransport execute: age
smoothSolver:  Solving for age, Initial residual = 0.000160502, Final residual = 1.41723e-05, No Iterations 15

Time = 655

smoothSolver:  Solving for Ux, Initial residual = 7.44968e-07, Final residual = 6.22894e-08, No Iterations 5
smoothSolver:  Solving for Uy, Initial residual = 4.16737e-07, Final residual = 3.78491e-08, No Iterations 5
GAMG:  Solving for p, Initial residual = 1.09125e-06, Final residual = 8.23103e-08, No Iterations 2
time step continuity errors : sum local = 1.98645e-07, global = -2.41741e-10, cumulative = 0.0228231
smoothSolver:  Solving for omega, Initial residual = 6.19128e-08, Final residual = 9.72869e-09, No Iterations 3
smoothSolver:  Solving for k, Initial residual = 1.6808e-07, Final residual = 1.56029e-08, No Iterations 5
ExecutionTime = 8.36 s  ClockTime = 8 s

scalarTransport execute: age
smoothSolver:  Solving for age, Initial residual = 0.000160158, Final residual = 1.4151e-05, No Iterations 15

Time = 656

smoothSolver:  Solving for Ux, Initial residual = 7.24496e-07, Final residual = 6.05598e-08, No Iterations 5
smoothSolver:  Solving for Uy, Initial residual = 4.05944e-07, Final residual = 3.68804e-08, No Iterations 5
GAMG:  Solving for p, Initial residual = 1.06582e-06, Final residual = 8.05856e-08, No Iterations 2
time step continuity errors : sum local = 1.94483e-07, global = 1.90363e-10, cumulative = 0.0228231
smoothSolver:  Solving for omega, Initial residual = 6.10794e-08, Final residual = 9.63438e-09, No Iterations 3
smoothSolver:  Solving for k, Initial residual = 1.65819e-07, Final residual = 1.54338e-08, No Iterations 5
ExecutionTime = 8.37 s  ClockTime = 8 s

scalarTransport execute: age
smoothSolver:  Solving for age, Initial residual = 0.000159717, Final residual = 1.413e-05, No Iterations 15

Time = 657

smoothSolver:  Solving for Ux, Initial residual = 7.04654e-07, Final residual = 5.88811e-08, No Iterations 5
smoothSolver:  Solving for Uy, Initial residual = 3.94976e-07, Final residual = 3.59013e-08, No Iterations 5
GAMG:  Solving for p, Initial residual = 1.03954e-06, Final residual = 7.8686e-08, No Iterations 2
time step continuity errors : sum local = 1.89898e-07, global = 4.55794e-10, cumulative = 0.0228231
smoothSolver:  Solving for omega, Initial residual = 6.01284e-08, Final residual = 9.51526e-09, No Iterations 3
smoothSolver:  Solving for k, Initial residual = 1.63531e-07, Final residual = 1.52617e-08, No Iterations 5
ExecutionTime = 8.38 s  ClockTime = 8 s

scalarTransport execute: age
smoothSolver:  Solving for age, Initial residual = 0.000159307, Final residual = 1.41089e-05, No Iterations 15

Time = 658

smoothSolver:  Solving for Ux, Initial residual = 6.85276e-07, Final residual = 5.72419e-08, No Iterations 5
smoothSolver:  Solving for Uy, Initial residual = 3.84162e-07, Final residual = 3.49331e-08, No Iterations 5
GAMG:  Solving for p, Initial residual = 1.01271e-06, Final residual = 7.66522e-08, No Iterations 2
time step continuity errors : sum local = 1.8499e-07, global = -1.60874e-09, cumulative = 0.0228231
smoothSolver:  Solving for omega, Initial residual = 5.9124e-08, Final residual = 9.36909e-09, No Iterations 3
smoothSolver:  Solving for k, Initial residual = 1.61073e-07, Final residual = 1.50848e-08, No Iterations 5
ExecutionTime = 8.39 s  ClockTime = 8 s

scalarTransport execute: age
smoothSolver:  Solving for age, Initial residual = 0.000159048, Final residual = 1.40866e-05, No Iterations 15

Time = 659

smoothSolver:  Solving for Ux, Initial residual = 6.67727e-07, Final residual = 5.57874e-08, No Iterations 5
smoothSolver:  Solving for Uy, Initial residual = 3.73538e-07, Final residual = 3.39341e-08, No Iterations 5
GAMG:  Solving for p, Initial residual = 9.8348e-07, Final residual = 7.32192e-08, No Iterations 2
time step continuity errors : sum local = 1.76705e-07, global = -1.66079e-09, cumulative = 0.0228231
smoothSolver:  Solving for omega, Initial residual = 5.82382e-08, Final residual = 9.2227e-09, No Iterations 3
smoothSolver:  Solving for k, Initial residual = 1.58999e-07, Final residual = 1.49123e-08, No Iterations 5
ExecutionTime = 8.41 s  ClockTime = 8 s


SIMPLE solution converged in 659 iterations

scalarTransport execute: age
smoothSolver:  Solving for age, Initial residual = 0.00015869, Final residual = 1.40635e-05, No Iterations 15

End

