/*---------------------------------------------------------------------------*\
| =========                 |                                                 |
| \\      /  F ield         | OpenFOAM: The Open Source CFD Toolbox           |
|  \\    /   O peration     | Version:  v2012                                 |
|   \\  /    A nd           | Website:  www.openfoam.com                      |
|    \\/     M anipulation  |                                                 |
\*---------------------------------------------------------------------------*/
Build  : _7bdb509494-20201222 OPENFOAM=2012
Arch   : "LSB;label=32;scalar=64"
Exec   : simpleFoam
Date   : Feb 24 2023
Time   : 01:58:48
Host   : johnsDesktop
PID    : 21664
I/O    : uncollated
Case   : /home/john/of_runs/cases/dbl_0_58_109_0
nProcs : 1
trapFpe: Floating point exception trapping enabled (FOAM_SIGFPE).
fileModificationChecking : Monitoring run-time modified files using timeStampMaster (fileModificationSkew 5, maxFileModificationPolls 20)
allowSystemOperations : Allowing user-supplied system call operations

// * * * * * * * * * * * * * * * * * * * * * * * * * * * * * * * * * * * * * //
Create time

Create mesh for time = 0


SIMPLE: convergence criteria
    field p	 tolerance 1e-06
    field U	 tolerance 1e-06
    field "(k|epsilon|omega|f|v2|age)"	 tolerance 1e-05

Reading field p

Reading field U

Reading/calculating face flux field phi

Selecting incompressible transport model Newtonian
Selecting turbulence model type RAS
Selecting RAS turbulence model kOmegaSST
Selecting patchDistMethod meshWave
RAS
{
    RASModel        kOmegaSST;
    turbulence      on;
    printCoeffs     on;
    alphaK1         0.85;
    alphaK2         1;
    alphaOmega1     0.5;
    alphaOmega2     0.856;
    gamma1          0.555556;
    gamma2          0.44;
    beta1           0.075;
    beta2           0.0828;
    betaStar        0.09;
    a1              0.31;
    b1              1;
    c1              10;
    F3              false;
    decayControl    false;
    kInf            0;
    omegaInf        0;
}

No MRF models present

No finite volume options present

Starting time loop

Selecting finite volume options type scalarSemiImplicitSource
    Source: unitySource
    - selecting all cells
    - selected 6502 cell(s) with volume 0.03142
Time = 1

smoothSolver:  Solving for Ux, Initial residual = 0, Final residual = 0, No Iterations 0
smoothSolver:  Solving for Uy, Initial residual = 1, Final residual = 0.0737787, No Iterations 1
GAMG:  Solving for p, Initial residual = 1, Final residual = 0.0582963, No Iterations 7
time step continuity errors : sum local = 0.00371077, global = -0.000390209, cumulative = -0.000390209
smoothSolver:  Solving for omega, Initial residual = 0.0325552, Final residual = 0.00320667, No Iterations 2
smoothSolver:  Solving for k, Initial residual = 1, Final residual = 0.0532114, No Iterations 2
ExecutionTime = 0.05 s  ClockTime = 0 s

scalarTransport execute: age
smoothSolver:  Solving for age, Initial residual = 1, Final residual = 0.0990411, No Iterations 6

Time = 2

smoothSolver:  Solving for Ux, Initial residual = 0.436242, Final residual = 0.0411588, No Iterations 5
smoothSolver:  Solving for Uy, Initial residual = 0.254348, Final residual = 0.0253605, No Iterations 4
GAMG:  Solving for p, Initial residual = 0.0601889, Final residual = 0.00225205, No Iterations 4
time step continuity errors : sum local = 0.0170053, global = 0.00135384, cumulative = 0.000963629
smoothSolver:  Solving for omega, Initial residual = 0.0468676, Final residual = 0.00334724, No Iterations 1
smoothSolver:  Solving for k, Initial residual = 0.243393, Final residual = 0.0170521, No Iterations 3
ExecutionTime = 0.06 s  ClockTime = 0 s

scalarTransport execute: age
smoothSolver:  Solving for age, Initial residual = 0.558327, Final residual = 0.0478744, No Iterations 8

Time = 3

smoothSolver:  Solving for Ux, Initial residual = 0.170266, Final residual = 0.0111021, No Iterations 5
smoothSolver:  Solving for Uy, Initial residual = 0.103413, Final residual = 0.00887886, No Iterations 4
GAMG:  Solving for p, Initial residual = 0.0476542, Final residual = 0.00336297, No Iterations 3
time step continuity errors : sum local = 0.0147605, global = 0.00109201, cumulative = 0.00205564
smoothSolver:  Solving for omega, Initial residual = 0.00750574, Final residual = 0.00050185, No Iterations 2
smoothSolver:  Solving for k, Initial residual = 0.131289, Final residual = 0.00714022, No Iterations 4
ExecutionTime = 0.07 s  ClockTime = 0 s

scalarTransport execute: age
smoothSolver:  Solving for age, Initial residual = 0.289045, Final residual = 0.0287944, No Iterations 8

Time = 4

smoothSolver:  Solving for Ux, Initial residual = 0.092, Final residual = 0.00875859, No Iterations 4
smoothSolver:  Solving for Uy, Initial residual = 0.0621792, Final residual = 0.00484869, No Iterations 4
GAMG:  Solving for p, Initial residual = 0.0548536, Final residual = 0.004815, No Iterations 2
time step continuity errors : sum local = 0.0158822, global = 0.00217946, cumulative = 0.0042351
smoothSolver:  Solving for omega, Initial residual = 0.00388188, Final residual = 0.00033845, No Iterations 2
smoothSolver:  Solving for k, Initial residual = 0.0889559, Final residual = 0.00624314, No Iterations 4
ExecutionTime = 0.08 s  ClockTime = 0 s

scalarTransport execute: age
smoothSolver:  Solving for age, Initial residual = 0.152856, Final residual = 0.0148709, No Iterations 9

Time = 5

smoothSolver:  Solving for Ux, Initial residual = 0.0708645, Final residual = 0.00444897, No Iterations 5
smoothSolver:  Solving for Uy, Initial residual = 0.0496282, Final residual = 0.00395302, No Iterations 4
GAMG:  Solving for p, Initial residual = 0.049138, Final residual = 0.00478952, No Iterations 2
time step continuity errors : sum local = 0.0150225, global = 0.00160134, cumulative = 0.00583644
smoothSolver:  Solving for omega, Initial residual = 0.00189282, Final residual = 0.000110489, No Iterations 3
smoothSolver:  Solving for k, Initial residual = 0.0668646, Final residual = 0.00535475, No Iterations 4
ExecutionTime = 0.1 s  ClockTime = 0 s

scalarTransport execute: age
smoothSolver:  Solving for age, Initial residual = 0.105681, Final residual = 0.00953982, No Iterations 10

Time = 6

smoothSolver:  Solving for Ux, Initial residual = 0.0601876, Final residual = 0.00377639, No Iterations 5
smoothSolver:  Solving for Uy, Initial residual = 0.0434828, Final residual = 0.00374057, No Iterations 4
GAMG:  Solving for p, Initial residual = 0.0441686, Final residual = 0.00336368, No Iterations 2
time step continuity errors : sum local = 0.0102076, global = 0.0011673, cumulative = 0.00700374
smoothSolver:  Solving for omega, Initial residual = 0.00109672, Final residual = 7.624e-05, No Iterations 3
smoothSolver:  Solving for k, Initial residual = 0.0537574, Final residual = 0.00473642, No Iterations 4
ExecutionTime = 0.11 s  ClockTime = 0 s

scalarTransport execute: age
smoothSolver:  Solving for age, Initial residual = 0.0798137, Final residual = 0.00749288, No Iterations 10

Time = 7

smoothSolver:  Solving for Ux, Initial residual = 0.0539946, Final residual = 0.00349493, No Iterations 5
smoothSolver:  Solving for Uy, Initial residual = 0.0397317, Final residual = 0.00366381, No Iterations 4
GAMG:  Solving for p, Initial residual = 0.0415894, Final residual = 0.00318654, No Iterations 2
time step continuity errors : sum local = 0.00969867, global = 0.0010222, cumulative = 0.00802594
smoothSolver:  Solving for omega, Initial residual = 0.000703856, Final residual = 5.22264e-05, No Iterations 3
smoothSolver:  Solving for k, Initial residual = 0.0450967, Final residual = 0.00421335, No Iterations 4
ExecutionTime = 0.12 s  ClockTime = 0 s

scalarTransport execute: age
smoothSolver:  Solving for age, Initial residual = 0.0650442, Final residual = 0.00630533, No Iterations 10

Time = 8

smoothSolver:  Solving for Ux, Initial residual = 0.0497775, Final residual = 0.00326514, No Iterations 5
smoothSolver:  Solving for Uy, Initial residual = 0.0370694, Final residual = 0.00354939, No Iterations 4
GAMG:  Solving for p, Initial residual = 0.0398869, Final residual = 0.00288578, No Iterations 2
time step continuity errors : sum local = 0.00886315, global = 0.000875196, cumulative = 0.00890113
smoothSolver:  Solving for omega, Initial residual = 0.000467726, Final residual = 3.90603e-05, No Iterations 3
smoothSolver:  Solving for k, Initial residual = 0.0390526, Final residual = 0.00379471, No Iterations 4
ExecutionTime = 0.13 s  ClockTime = 0 s

scalarTransport execute: age
smoothSolver:  Solving for age, Initial residual = 0.0556783, Final residual = 0.00495273, No Iterations 11

Time = 9

smoothSolver:  Solving for Ux, Initial residual = 0.0470279, Final residual = 0.00306843, No Iterations 5
smoothSolver:  Solving for Uy, Initial residual = 0.0351881, Final residual = 0.00340038, No Iterations 4
GAMG:  Solving for p, Initial residual = 0.039134, Final residual = 0.00267372, No Iterations 2
time step continuity errors : sum local = 0.00826216, global = 0.000752688, cumulative = 0.00965382
smoothSolver:  Solving for omega, Initial residual = 0.000371463, Final residual = 3.00101e-05, No Iterations 3
smoothSolver:  Solving for k, Initial residual = 0.0346175, Final residual = 0.00344355, No Iterations 4
ExecutionTime = 0.15 s  ClockTime = 0 s

scalarTransport execute: age
smoothSolver:  Solving for age, Initial residual = 0.0531755, Final residual = 0.00475135, No Iterations 11

Time = 10

smoothSolver:  Solving for Ux, Initial residual = 0.0442416, Final residual = 0.00283232, No Iterations 5
smoothSolver:  Solving for Uy, Initial residual = 0.0336812, Final residual = 0.00323546, No Iterations 4
GAMG:  Solving for p, Initial residual = 0.0396534, Final residual = 0.00268261, No Iterations 2
time step continuity errors : sum local = 0.00832448, global = 0.000689911, cumulative = 0.0103437
smoothSolver:  Solving for omega, Initial residual = 0.000309946, Final residual = 2.40067e-05, No Iterations 3
smoothSolver:  Solving for k, Initial residual = 0.0312389, Final residual = 0.00183813, No Iterations 5
ExecutionTime = 0.16 s  ClockTime = 0 s

scalarTransport execute: age
smoothSolver:  Solving for age, Initial residual = 0.0514165, Final residual = 0.00444226, No Iterations 11

Time = 11

smoothSolver:  Solving for Ux, Initial residual = 0.0384043, Final residual = 0.00237549, No Iterations 5
smoothSolver:  Solving for Uy, Initial residual = 0.0326991, Final residual = 0.00304209, No Iterations 4
GAMG:  Solving for p, Initial residual = 0.0401989, Final residual = 0.00274967, No Iterations 2
time step continuity errors : sum local = 0.00856723, global = 0.000693163, cumulative = 0.0110369
smoothSolver:  Solving for omega, Initial residual = 0.000285663, Final residual = 1.95855e-05, No Iterations 3
smoothSolver:  Solving for k, Initial residual = 0.0285954, Final residual = 0.00168348, No Iterations 5
ExecutionTime = 0.17 s  ClockTime = 0 s

scalarTransport execute: age
smoothSolver:  Solving for age, Initial residual = 0.0498363, Final residual = 0.004754, No Iterations 10

Time = 12

smoothSolver:  Solving for Ux, Initial residual = 0.0399547, Final residual = 0.00393884, No Iterations 4
smoothSolver:  Solving for Uy, Initial residual = 0.0308579, Final residual = 0.00283785, No Iterations 4
GAMG:  Solving for p, Initial residual = 0.039749, Final residual = 0.00271308, No Iterations 2
time step continuity errors : sum local = 0.00848584, global = 0.000744325, cumulative = 0.0117812
smoothSolver:  Solving for omega, Initial residual = 0.000270252, Final residual = 1.63167e-05, No Iterations 3
smoothSolver:  Solving for k, Initial residual = 0.0264247, Final residual = 0.001545, No Iterations 5
ExecutionTime = 0.18 s  ClockTime = 0 s

scalarTransport execute: age
smoothSolver:  Solving for age, Initial residual = 0.0477934, Final residual = 0.00441022, No Iterations 10

Time = 13

smoothSolver:  Solving for Ux, Initial residual = 0.0381097, Final residual = 0.00365769, No Iterations 4
smoothSolver:  Solving for Uy, Initial residual = 0.028749, Final residual = 0.00260863, No Iterations 4
GAMG:  Solving for p, Initial residual = 0.0391649, Final residual = 0.00292247, No Iterations 2
time step continuity errors : sum local = 0.00917091, global = 0.000926163, cumulative = 0.0127074
smoothSolver:  Solving for omega, Initial residual = 0.000271312, Final residual = 1.38625e-05, No Iterations 3
smoothSolver:  Solving for k, Initial residual = 0.0245238, Final residual = 0.0024361, No Iterations 4
ExecutionTime = 0.19 s  ClockTime = 0 s

scalarTransport execute: age
smoothSolver:  Solving for age, Initial residual = 0.0446107, Final residual = 0.00418931, No Iterations 10

Time = 14

smoothSolver:  Solving for Ux, Initial residual = 0.0228317, Final residual = 0.0020129, No Iterations 4
smoothSolver:  Solving for Uy, Initial residual = 0.02665, Final residual = 0.00238447, No Iterations 4
GAMG:  Solving for p, Initial residual = 0.0380129, Final residual = 0.00286932, No Iterations 2
time step continuity errors : sum local = 0.00905504, global = 0.00104142, cumulative = 0.0137488
smoothSolver:  Solving for omega, Initial residual = 0.000244131, Final residual = 1.18381e-05, No Iterations 3
smoothSolver:  Solving for k, Initial residual = 0.0228921, Final residual = 0.00224342, No Iterations 4
ExecutionTime = 0.21 s  ClockTime = 0 s

scalarTransport execute: age
smoothSolver:  Solving for age, Initial residual = 0.0413236, Final residual = 0.00397412, No Iterations 10

Time = 15

smoothSolver:  Solving for Ux, Initial residual = 0.0335367, Final residual = 0.00310367, No Iterations 4
smoothSolver:  Solving for Uy, Initial residual = 0.0240071, Final residual = 0.0021787, No Iterations 4
GAMG:  Solving for p, Initial residual = 0.036391, Final residual = 0.00283738, No Iterations 2
time step continuity errors : sum local = 0.00892171, global = 0.00110375, cumulative = 0.0148526
smoothSolver:  Solving for omega, Initial residual = 0.000223182, Final residual = 1.05527e-05, No Iterations 3
smoothSolver:  Solving for k, Initial residual = 0.0213721, Final residual = 0.00206217, No Iterations 4
ExecutionTime = 0.22 s  ClockTime = 0 s

scalarTransport execute: age
smoothSolver:  Solving for age, Initial residual = 0.0368721, Final residual = 0.00322191, No Iterations 11

Time = 16

smoothSolver:  Solving for Ux, Initial residual = 0.0305795, Final residual = 0.00280416, No Iterations 4
smoothSolver:  Solving for Uy, Initial residual = 0.0219085, Final residual = 0.00199521, No Iterations 4
GAMG:  Solving for p, Initial residual = 0.0345432, Final residual = 0.00276864, No Iterations 2
time step continuity errors : sum local = 0.00864535, global = 0.00110901, cumulative = 0.0159616
smoothSolver:  Solving for omega, Initial residual = 0.000197592, Final residual = 9.30487e-06, No Iterations 3
smoothSolver:  Solving for k, Initial residual = 0.0199618, Final residual = 0.00189023, No Iterations 4
ExecutionTime = 0.23 s  ClockTime = 0 s

scalarTransport execute: age
smoothSolver:  Solving for age, Initial residual = 0.0329473, Final residual = 0.00306061, No Iterations 11

Time = 17

smoothSolver:  Solving for Ux, Initial residual = 0.0278885, Final residual = 0.00254937, No Iterations 4
smoothSolver:  Solving for Uy, Initial residual = 0.0199555, Final residual = 0.00182783, No Iterations 4
GAMG:  Solving for p, Initial residual = 0.0326463, Final residual = 0.00265583, No Iterations 2
time step continuity errors : sum local = 0.00819891, global = 0.00106835, cumulative = 0.0170299
smoothSolver:  Solving for omega, Initial residual = 0.00018035, Final residual = 1.75444e-05, No Iterations 2
smoothSolver:  Solving for k, Initial residual = 0.0186639, Final residual = 0.0017321, No Iterations 4
ExecutionTime = 0.24 s  ClockTime = 0 s

scalarTransport execute: age
smoothSolver:  Solving for age, Initial residual = 0.0294648, Final residual = 0.00294483, No Iterations 11

Time = 18

smoothSolver:  Solving for Ux, Initial residual = 0.0253529, Final residual = 0.00232716, No Iterations 4
smoothSolver:  Solving for Uy, Initial residual = 0.0181798, Final residual = 0.0016744, No Iterations 4
GAMG:  Solving for p, Initial residual = 0.0306886, Final residual = 0.00252508, No Iterations 2
time step continuity errors : sum local = 0.00768809, global = 0.00102154, cumulative = 0.0180515
smoothSolver:  Solving for omega, Initial residual = 0.00016812, Final residual = 1.65259e-05, No Iterations 2
smoothSolver:  Solving for k, Initial residual = 0.0173678, Final residual = 0.00158358, No Iterations 4
ExecutionTime = 0.25 s  ClockTime = 0 s

scalarTransport execute: age
smoothSolver:  Solving for age, Initial residual = 0.0270407, Final residual = 0.00252379, No Iterations 12

Time = 19

smoothSolver:  Solving for Ux, Initial residual = 0.0233133, Final residual = 0.00215467, No Iterations 4
smoothSolver:  Solving for Uy, Initial residual = 0.0165237, Final residual = 0.00153635, No Iterations 4
GAMG:  Solving for p, Initial residual = 0.0286366, Final residual = 0.00226244, No Iterations 2
time step continuity errors : sum local = 0.00679268, global = 0.000941125, cumulative = 0.0189926
smoothSolver:  Solving for omega, Initial residual = 0.00015823, Final residual = 1.53403e-05, No Iterations 2
smoothSolver:  Solving for k, Initial residual = 0.016051, Final residual = 0.00144454, No Iterations 4
ExecutionTime = 0.27 s  ClockTime = 0 s

scalarTransport execute: age
smoothSolver:  Solving for age, Initial residual = 0.0256653, Final residual = 0.00225314, No Iterations 13

Time = 20

smoothSolver:  Solving for Ux, Initial residual = 0.00272581, Final residual = 3.17873e-05, No Iterations 1
smoothSolver:  Solving for Uy, Initial residual = 0.337197, Final residual = 0.00240005, No Iterations 1
GAMG:  Solving for p, Initial residual = 0.0176689, Final residual = 0.00153725, No Iterations 2
time step continuity errors : sum local = 0.00455352, global = 0.00040484, cumulative = 0.0193974
smoothSolver:  Solving for omega, Initial residual = 8.83478e-06, Final residual = 4.13803e-07, No Iterations 3
smoothSolver:  Solving for k, Initial residual = 0.0148295, Final residual = 0.00132755, No Iterations 4
ExecutionTime = 0.28 s  ClockTime = 0 s

scalarTransport execute: age
smoothSolver:  Solving for age, Initial residual = 0.023821, Final residual = 0.0022038, No Iterations 13

Time = 21

smoothSolver:  Solving for Ux, Initial residual = 0.0205572, Final residual = 0.00198772, No Iterations 4
smoothSolver:  Solving for Uy, Initial residual = 0.0149891, Final residual = 0.00142637, No Iterations 4
GAMG:  Solving for p, Initial residual = 0.0255426, Final residual = 0.000774821, No Iterations 3
time step continuity errors : sum local = 0.00223344, global = 0.000257064, cumulative = 0.0196545
smoothSolver:  Solving for omega, Initial residual = 0.000134315, Final residual = 1.19081e-05, No Iterations 2
smoothSolver:  Solving for k, Initial residual = 0.0134996, Final residual = 0.00120943, No Iterations 4
ExecutionTime = 0.29 s  ClockTime = 0 s

scalarTransport execute: age
smoothSolver:  Solving for age, Initial residual = 0.0233416, Final residual = 0.00220975, No Iterations 13

Time = 22

smoothSolver:  Solving for Ux, Initial residual = 0.0193223, Final residual = 0.00187935, No Iterations 4
smoothSolver:  Solving for Uy, Initial residual = 0.0134828, Final residual = 0.00129528, No Iterations 4
GAMG:  Solving for p, Initial residual = 0.0229511, Final residual = 0.000771756, No Iterations 3
time step continuity errors : sum local = 0.00220626, global = 0.000220366, cumulative = 0.0198748
smoothSolver:  Solving for omega, Initial residual = 0.000140351, Final residual = 1.18128e-05, No Iterations 2
smoothSolver:  Solving for k, Initial residual = 0.0122988, Final residual = 0.00110538, No Iterations 4
ExecutionTime = 0.3 s  ClockTime = 0 s

scalarTransport execute: age
smoothSolver:  Solving for age, Initial residual = 0.0230482, Final residual = 0.00220572, No Iterations 13

Time = 23

smoothSolver:  Solving for Ux, Initial residual = 0.0180875, Final residual = 0.00180711, No Iterations 4
smoothSolver:  Solving for Uy, Initial residual = 0.0121859, Final residual = 0.00118275, No Iterations 4
GAMG:  Solving for p, Initial residual = 0.0202607, Final residual = 0.00194576, No Iterations 2
time step continuity errors : sum local = 0.00551551, global = 0.000166866, cumulative = 0.0200417
smoothSolver:  Solving for omega, Initial residual = 0.000123385, Final residual = 1.14494e-05, No Iterations 2
smoothSolver:  Solving for k, Initial residual = 0.0112368, Final residual = 0.00101433, No Iterations 4
ExecutionTime = 0.31 s  ClockTime = 0 s

scalarTransport execute: age
smoothSolver:  Solving for age, Initial residual = 0.0221936, Final residual = 0.00215785, No Iterations 13

Time = 24

smoothSolver:  Solving for Ux, Initial residual = 0.0168985, Final residual = 0.00105754, No Iterations 5
smoothSolver:  Solving for Uy, Initial residual = 0.0110315, Final residual = 0.00109336, No Iterations 4
GAMG:  Solving for p, Initial residual = 0.0198358, Final residual = 0.00187113, No Iterations 2
time step continuity errors : sum local = 0.00526646, global = 0.00020308, cumulative = 0.0202448
smoothSolver:  Solving for omega, Initial residual = 0.000121887, Final residual = 1.17411e-05, No Iterations 2
smoothSolver:  Solving for k, Initial residual = 0.0103104, Final residual = 0.000935233, No Iterations 4
ExecutionTime = 0.33 s  ClockTime = 0 s

scalarTransport execute: age
smoothSolver:  Solving for age, Initial residual = 0.0204498, Final residual = 0.0019433, No Iterations 13

Time = 25

smoothSolver:  Solving for Ux, Initial residual = 0.0151892, Final residual = 0.000952704, No Iterations 5
smoothSolver:  Solving for Uy, Initial residual = 0.0100915, Final residual = 0.00100653, No Iterations 4
GAMG:  Solving for p, Initial residual = 0.0170973, Final residual = 0.00164447, No Iterations 2
time step continuity errors : sum local = 0.00459415, global = 0.000212512, cumulative = 0.0204573
smoothSolver:  Solving for omega, Initial residual = 0.000110845, Final residual = 1.1078e-05, No Iterations 2
smoothSolver:  Solving for k, Initial residual = 0.00950369, Final residual = 0.000866577, No Iterations 4
ExecutionTime = 0.34 s  ClockTime = 0 s

scalarTransport execute: age
smoothSolver:  Solving for age, Initial residual = 0.0186254, Final residual = 0.00167646, No Iterations 13

Time = 26

smoothSolver:  Solving for Ux, Initial residual = 0.0150471, Final residual = 0.000972702, No Iterations 5
smoothSolver:  Solving for Uy, Initial residual = 0.0091992, Final residual = 0.000585512, No Iterations 5
GAMG:  Solving for p, Initial residual = 0.0154105, Final residual = 0.00139264, No Iterations 2
time step continuity errors : sum local = 0.0038647, global = 0.000190261, cumulative = 0.0206476
smoothSolver:  Solving for omega, Initial residual = 0.000107082, Final residual = 1.06076e-05, No Iterations 2
smoothSolver:  Solving for k, Initial residual = 0.00879166, Final residual = 0.000805675, No Iterations 4
ExecutionTime = 0.35 s  ClockTime = 0 s

scalarTransport execute: age
smoothSolver:  Solving for age, Initial residual = 0.0169915, Final residual = 0.00165543, No Iterations 12

Time = 27

smoothSolver:  Solving for Ux, Initial residual = 0.0144147, Final residual = 0.000953469, No Iterations 5
smoothSolver:  Solving for Uy, Initial residual = 0.00846739, Final residual = 0.0005503, No Iterations 5
GAMG:  Solving for p, Initial residual = 0.0140696, Final residual = 0.00127868, No Iterations 2
time step continuity errors : sum local = 0.00352549, global = 0.000125898, cumulative = 0.0207735
smoothSolver:  Solving for omega, Initial residual = 9.80804e-05, Final residual = 4.8347e-06, No Iterations 3
smoothSolver:  Solving for k, Initial residual = 0.00814823, Final residual = 0.000748999, No Iterations 4
ExecutionTime = 0.36 s  ClockTime = 0 s

scalarTransport execute: age
smoothSolver:  Solving for age, Initial residual = 0.0155222, Final residual = 0.00144896, No Iterations 12

Time = 28

smoothSolver:  Solving for Ux, Initial residual = 0.0137386, Final residual = 0.000925303, No Iterations 5
smoothSolver:  Solving for Uy, Initial residual = 0.00794215, Final residual = 0.000522027, No Iterations 5
GAMG:  Solving for p, Initial residual = 0.0130102, Final residual = 0.00122533, No Iterations 2
time step continuity errors : sum local = 0.0033523, global = 8.76173e-05, cumulative = 0.0208611
smoothSolver:  Solving for omega, Initial residual = 8.5698e-05, Final residual = 4.3996e-06, No Iterations 3
smoothSolver:  Solving for k, Initial residual = 0.00758604, Final residual = 0.000697631, No Iterations 4
ExecutionTime = 0.37 s  ClockTime = 0 s

scalarTransport execute: age
smoothSolver:  Solving for age, Initial residual = 0.0144443, Final residual = 0.001279, No Iterations 12

Time = 29

smoothSolver:  Solving for Ux, Initial residual = 0.0132393, Final residual = 0.000905192, No Iterations 5
smoothSolver:  Solving for Uy, Initial residual = 0.00752159, Final residual = 0.000502687, No Iterations 5
GAMG:  Solving for p, Initial residual = 0.0121131, Final residual = 0.000596368, No Iterations 3
time step continuity errors : sum local = 0.00162316, global = 5.98828e-05, cumulative = 0.020921
smoothSolver:  Solving for omega, Initial residual = 0.000100409, Final residual = 8.97032e-06, No Iterations 2
smoothSolver:  Solving for k, Initial residual = 0.00715386, Final residual = 0.000655345, No Iterations 4
ExecutionTime = 0.39 s  ClockTime = 0 s

scalarTransport execute: age
smoothSolver:  Solving for age, Initial residual = 0.0136525, Final residual = 0.00133394, No Iterations 11

Time = 30

smoothSolver:  Solving for Ux, Initial residual = 0.012686, Final residual = 0.000867746, No Iterations 5
smoothSolver:  Solving for Uy, Initial residual = 0.00742154, Final residual = 0.000502517, No Iterations 5
GAMG:  Solving for p, Initial residual = 0.0110656, Final residual = 0.000953811, No Iterations 2
time step continuity errors : sum local = 0.00257903, global = 3.60934e-05, cumulative = 0.0209571
smoothSolver:  Solving for omega, Initial residual = 9.65307e-05, Final residual = 9.15525e-06, No Iterations 2
smoothSolver:  Solving for k, Initial residual = 0.00675177, Final residual = 0.00061591, No Iterations 4
ExecutionTime = 0.4 s  ClockTime = 0 s

scalarTransport execute: age
smoothSolver:  Solving for age, Initial residual = 0.013217, Final residual = 0.00124368, No Iterations 11

Time = 31

smoothSolver:  Solving for Ux, Initial residual = 0.0123859, Final residual = 0.000870781, No Iterations 5
smoothSolver:  Solving for Uy, Initial residual = 0.00708993, Final residual = 0.000481954, No Iterations 5
GAMG:  Solving for p, Initial residual = 0.0110972, Final residual = 0.000628944, No Iterations 3
time step continuity errors : sum local = 0.00169339, global = 3.26566e-05, cumulative = 0.0209897
smoothSolver:  Solving for omega, Initial residual = 8.60396e-05, Final residual = 4.47467e-06, No Iterations 3
smoothSolver:  Solving for k, Initial residual = 0.00642095, Final residual = 0.000584779, No Iterations 4
ExecutionTime = 0.41 s  ClockTime = 0 s

scalarTransport execute: age
smoothSolver:  Solving for age, Initial residual = 0.0129676, Final residual = 0.00118445, No Iterations 11

Time = 32

smoothSolver:  Solving for Ux, Initial residual = 0.0119663, Final residual = 0.000838375, No Iterations 5
smoothSolver:  Solving for Uy, Initial residual = 0.00708473, Final residual = 0.000487194, No Iterations 5
GAMG:  Solving for p, Initial residual = 0.010001, Final residual = 0.000986583, No Iterations 2
time step continuity errors : sum local = 0.0026468, global = 3.98625e-05, cumulative = 0.0210296
smoothSolver:  Solving for omega, Initial residual = 7.81817e-05, Final residual = 4.34506e-06, No Iterations 3
smoothSolver:  Solving for k, Initial residual = 0.00612635, Final residual = 0.000557579, No Iterations 4
ExecutionTime = 0.42 s  ClockTime = 0 s

scalarTransport execute: age
smoothSolver:  Solving for age, Initial residual = 0.0129456, Final residual = 0.00116595, No Iterations 11

Time = 33

smoothSolver:  Solving for Ux, Initial residual = 0.0118349, Final residual = 0.000846936, No Iterations 5
smoothSolver:  Solving for Uy, Initial residual = 0.00690559, Final residual = 0.000479563, No Iterations 5
GAMG:  Solving for p, Initial residual = 0.0103566, Final residual = 0.000630877, No Iterations 3
time step continuity errors : sum local = 0.00168693, global = 5.52568e-05, cumulative = 0.0210848
smoothSolver:  Solving for omega, Initial residual = 7.38108e-05, Final residual = 4.33441e-06, No Iterations 3
smoothSolver:  Solving for k, Initial residual = 0.00589986, Final residual = 0.000536905, No Iterations 4
ExecutionTime = 0.44 s  ClockTime = 0 s

scalarTransport execute: age
smoothSolver:  Solving for age, Initial residual = 0.0132652, Final residual = 0.00117803, No Iterations 11

Time = 34

smoothSolver:  Solving for Ux, Initial residual = 0.0113946, Final residual = 0.000809866, No Iterations 5
smoothSolver:  Solving for Uy, Initial residual = 0.00709741, Final residual = 0.000497068, No Iterations 5
GAMG:  Solving for p, Initial residual = 0.00981282, Final residual = 0.000497591, No Iterations 3
time step continuity errors : sum local = 0.00132504, global = 7.31446e-05, cumulative = 0.021158
smoothSolver:  Solving for omega, Initial residual = 7.84817e-05, Final residual = 4.38977e-06, No Iterations 3
smoothSolver:  Solving for k, Initial residual = 0.00568281, Final residual = 0.000517115, No Iterations 4
ExecutionTime = 0.45 s  ClockTime = 0 s

scalarTransport execute: age
smoothSolver:  Solving for age, Initial residual = 0.0138473, Final residual = 0.00119675, No Iterations 11

Time = 35

smoothSolver:  Solving for Ux, Initial residual = 0.0112261, Final residual = 0.000811371, No Iterations 5
smoothSolver:  Solving for Uy, Initial residual = 0.00715553, Final residual = 0.000504001, No Iterations 5
GAMG:  Solving for p, Initial residual = 0.0100524, Final residual = 0.000508895, No Iterations 3
time step continuity errors : sum local = 0.00134954, global = 9.03879e-05, cumulative = 0.0212484
smoothSolver:  Solving for omega, Initial residual = 8.23163e-05, Final residual = 4.49685e-06, No Iterations 3
smoothSolver:  Solving for k, Initial residual = 0.00545558, Final residual = 0.000496661, No Iterations 4
ExecutionTime = 0.46 s  ClockTime = 0 s

scalarTransport execute: age
smoothSolver:  Solving for age, Initial residual = 0.0143068, Final residual = 0.00141402, No Iterations 10

Time = 36

smoothSolver:  Solving for Ux, Initial residual = 0.0109379, Final residual = 0.000796628, No Iterations 5
smoothSolver:  Solving for Uy, Initial residual = 0.00729182, Final residual = 0.000508354, No Iterations 5
GAMG:  Solving for p, Initial residual = 0.0103094, Final residual = 0.000535622, No Iterations 3
time step continuity errors : sum local = 0.00141548, global = 0.000105985, cumulative = 0.0213544
smoothSolver:  Solving for omega, Initial residual = 8.39504e-05, Final residual = 4.62773e-06, No Iterations 3
smoothSolver:  Solving for k, Initial residual = 0.0052282, Final residual = 0.000473965, No Iterations 4
ExecutionTime = 0.47 s  ClockTime = 0 s

scalarTransport execute: age
smoothSolver:  Solving for age, Initial residual = 0.0146935, Final residual = 0.001441, No Iterations 10

Time = 37

smoothSolver:  Solving for Ux, Initial residual = 0.0108271, Final residual = 0.000792369, No Iterations 5
smoothSolver:  Solving for Uy, Initial residual = 0.00734232, Final residual = 0.000511689, No Iterations 5
GAMG:  Solving for p, Initial residual = 0.0104977, Final residual = 0.000534279, No Iterations 3
time step continuity errors : sum local = 0.00140776, global = 0.000119194, cumulative = 0.0214735
smoothSolver:  Solving for omega, Initial residual = 8.41807e-05, Final residual = 4.72237e-06, No Iterations 3
smoothSolver:  Solving for k, Initial residual = 0.00499675, Final residual = 0.000448732, No Iterations 4
ExecutionTime = 0.49 s  ClockTime = 0 s

scalarTransport execute: age
smoothSolver:  Solving for age, Initial residual = 0.0150251, Final residual = 0.00147564, No Iterations 10

Time = 38

smoothSolver:  Solving for Ux, Initial residual = 0.0105759, Final residual = 0.000776112, No Iterations 5
smoothSolver:  Solving for Uy, Initial residual = 0.00737028, Final residual = 0.000511522, No Iterations 5
GAMG:  Solving for p, Initial residual = 0.0106387, Final residual = 0.000519134, No Iterations 3
time step continuity errors : sum local = 0.00136417, global = 0.000129583, cumulative = 0.0216031
smoothSolver:  Solving for omega, Initial residual = 8.55696e-05, Final residual = 4.80889e-06, No Iterations 3
smoothSolver:  Solving for k, Initial residual = 0.00475056, Final residual = 0.000421242, No Iterations 4
ExecutionTime = 0.5 s  ClockTime = 0 s

scalarTransport execute: age
smoothSolver:  Solving for age, Initial residual = 0.0152106, Final residual = 0.00149976, No Iterations 10

Time = 39

smoothSolver:  Solving for Ux, Initial residual = 0.0102744, Final residual = 0.000753363, No Iterations 5
smoothSolver:  Solving for Uy, Initial residual = 0.00733577, Final residual = 0.000506737, No Iterations 5
GAMG:  Solving for p, Initial residual = 0.0107052, Final residual = 0.000465206, No Iterations 3
time step continuity errors : sum local = 0.00121915, global = 0.000122516, cumulative = 0.0217256
smoothSolver:  Solving for omega, Initial residual = 8.63423e-05, Final residual = 4.8772e-06, No Iterations 3
smoothSolver:  Solving for k, Initial residual = 0.00450205, Final residual = 0.000392105, No Iterations 4
ExecutionTime = 0.51 s  ClockTime = 0 s

scalarTransport execute: age
smoothSolver:  Solving for age, Initial residual = 0.0151048, Final residual = 0.0012988, No Iterations 11

Time = 40

smoothSolver:  Solving for Ux, Initial residual = 0.00995666, Final residual = 0.000728567, No Iterations 5
smoothSolver:  Solving for Uy, Initial residual = 0.0072119, Final residual = 0.000496489, No Iterations 5
GAMG:  Solving for p, Initial residual = 0.010729, Final residual = 0.000442281, No Iterations 3
time step continuity errors : sum local = 0.00115495, global = 0.000117003, cumulative = 0.0218426
smoothSolver:  Solving for omega, Initial residual = 8.98526e-05, Final residual = 4.93497e-06, No Iterations 3
smoothSolver:  Solving for k, Initial residual = 0.00423864, Final residual = 0.000362316, No Iterations 4
ExecutionTime = 0.53 s  ClockTime = 0 s

scalarTransport execute: age
smoothSolver:  Solving for age, Initial residual = 0.0148138, Final residual = 0.00129533, No Iterations 11

Time = 41

smoothSolver:  Solving for Ux, Initial residual = 0.00955409, Final residual = 0.000698393, No Iterations 5
smoothSolver:  Solving for Uy, Initial residual = 0.00702036, Final residual = 0.000480721, No Iterations 5
GAMG:  Solving for p, Initial residual = 0.0106186, Final residual = 0.00042175, No Iterations 3
time step continuity errors : sum local = 0.00109772, global = 0.000114547, cumulative = 0.0219572
smoothSolver:  Solving for omega, Initial residual = 9.60003e-05, Final residual = 4.92439e-06, No Iterations 3
smoothSolver:  Solving for k, Initial residual = 0.0039515, Final residual = 0.000332851, No Iterations 4
ExecutionTime = 0.54 s  ClockTime = 0 s

scalarTransport execute: age
smoothSolver:  Solving for age, Initial residual = 0.0143596, Final residual = 0.00128757, No Iterations 11

Time = 42

smoothSolver:  Solving for Ux, Initial residual = 0.0091079, Final residual = 0.000663847, No Iterations 5
smoothSolver:  Solving for Uy, Initial residual = 0.00674646, Final residual = 0.000460293, No Iterations 5
GAMG:  Solving for p, Initial residual = 0.0103345, Final residual = 0.000397224, No Iterations 3
time step continuity errors : sum local = 0.00103037, global = 0.000112389, cumulative = 0.0220696
smoothSolver:  Solving for omega, Initial residual = 0.000103172, Final residual = 9.99857e-06, No Iterations 2
smoothSolver:  Solving for k, Initial residual = 0.00364338, Final residual = 0.000303606, No Iterations 4
ExecutionTime = 0.55 s  ClockTime = 0 s

scalarTransport execute: age
smoothSolver:  Solving for age, Initial residual = 0.0137531, Final residual = 0.00127608, No Iterations 11

Time = 43

smoothSolver:  Solving for Ux, Initial residual = 0.00862818, Final residual = 0.000626665, No Iterations 5
smoothSolver:  Solving for Uy, Initial residual = 0.00639221, Final residual = 0.000435685, No Iterations 5
GAMG:  Solving for p, Initial residual = 0.00995566, Final residual = 0.000375235, No Iterations 3
time step continuity errors : sum local = 0.000969654, global = 0.000109262, cumulative = 0.0221788
smoothSolver:  Solving for omega, Initial residual = 0.000106378, Final residual = 9.93423e-06, No Iterations 2
smoothSolver:  Solving for k, Initial residual = 0.00333107, Final residual = 0.000275467, No Iterations 4
ExecutionTime = 0.56 s  ClockTime = 0 s

scalarTransport execute: age
smoothSolver:  Solving for age, Initial residual = 0.013031, Final residual = 0.00125475, No Iterations 11

Time = 44

smoothSolver:  Solving for Ux, Initial residual = 0.0081373, Final residual = 0.000586628, No Iterations 5
smoothSolver:  Solving for Uy, Initial residual = 0.00598116, Final residual = 0.000407537, No Iterations 5
GAMG:  Solving for p, Initial residual = 0.00951192, Final residual = 0.000357222, No Iterations 3
time step continuity errors : sum local = 0.000919427, global = 0.000105137, cumulative = 0.022284
smoothSolver:  Solving for omega, Initial residual = 9.07352e-05, Final residual = 4.6954e-06, No Iterations 3
smoothSolver:  Solving for k, Initial residual = 0.00304632, Final residual = 0.000250364, No Iterations 4
ExecutionTime = 0.58 s  ClockTime = 0 s

scalarTransport execute: age
smoothSolver:  Solving for age, Initial residual = 0.0121625, Final residual = 0.00105631, No Iterations 12

Time = 45

smoothSolver:  Solving for Ux, Initial residual = 0.00770557, Final residual = 0.000553492, No Iterations 5
smoothSolver:  Solving for Uy, Initial residual = 0.0054945, Final residual = 0.000375975, No Iterations 5
GAMG:  Solving for p, Initial residual = 0.00898641, Final residual = 0.000340679, No Iterations 3
time step continuity errors : sum local = 0.000873363, global = 0.000101357, cumulative = 0.0223853
smoothSolver:  Solving for omega, Initial residual = 7.41606e-05, Final residual = 4.14666e-06, No Iterations 3
smoothSolver:  Solving for k, Initial residual = 0.00277871, Final residual = 0.000227722, No Iterations 4
ExecutionTime = 0.59 s  ClockTime = 0 s

scalarTransport execute: age
smoothSolver:  Solving for age, Initial residual = 0.0113292, Final residual = 0.00100965, No Iterations 12

Time = 46

smoothSolver:  Solving for Ux, Initial residual = 0.00726471, Final residual = 0.000521065, No Iterations 5
smoothSolver:  Solving for Uy, Initial residual = 0.00498619, Final residual = 0.000342051, No Iterations 5
GAMG:  Solving for p, Initial residual = 0.00841446, Final residual = 0.000323202, No Iterations 3
time step continuity errors : sum local = 0.000825296, global = 9.7349e-05, cumulative = 0.0224827
smoothSolver:  Solving for omega, Initial residual = 6.57949e-05, Final residual = 3.69895e-06, No Iterations 3
smoothSolver:  Solving for k, Initial residual = 0.00252323, Final residual = 0.000207085, No Iterations 4
ExecutionTime = 0.6 s  ClockTime = 0 s

scalarTransport execute: age
smoothSolver:  Solving for age, Initial residual = 0.0104733, Final residual = 0.000954111, No Iterations 12

Time = 47

smoothSolver:  Solving for Ux, Initial residual = 0.00662048, Final residual = 0.000466858, No Iterations 5
smoothSolver:  Solving for Uy, Initial residual = 0.00456226, Final residual = 0.000308289, No Iterations 5
GAMG:  Solving for p, Initial residual = 0.00782296, Final residual = 0.000303211, No Iterations 3
time step continuity errors : sum local = 0.000771085, global = 9.29648e-05, cumulative = 0.0225757
smoothSolver:  Solving for omega, Initial residual = 6.11201e-05, Final residual = 3.24168e-06, No Iterations 3
smoothSolver:  Solving for k, Initial residual = 0.00230709, Final residual = 0.000188714, No Iterations 4
ExecutionTime = 0.61 s  ClockTime = 0 s

scalarTransport execute: age
smoothSolver:  Solving for age, Initial residual = 0.00983128, Final residual = 0.000900798, No Iterations 12

Time = 48

smoothSolver:  Solving for Ux, Initial residual = 0.00629744, Final residual = 0.000456277, No Iterations 5
smoothSolver:  Solving for Uy, Initial residual = 0.00409378, Final residual = 0.000279548, No Iterations 5
GAMG:  Solving for p, Initial residual = 0.00728591, Final residual = 0.000281915, No Iterations 3
time step continuity errors : sum local = 0.00071399, global = 8.80595e-05, cumulative = 0.0226637
smoothSolver:  Solving for omega, Initial residual = 5.76857e-05, Final residual = 2.87483e-06, No Iterations 3
smoothSolver:  Solving for k, Initial residual = 0.00211706, Final residual = 0.000172597, No Iterations 4
ExecutionTime = 0.62 s  ClockTime = 0 s

scalarTransport execute: age
smoothSolver:  Solving for age, Initial residual = 0.00929891, Final residual = 0.000853506, No Iterations 12

Time = 49

smoothSolver:  Solving for Ux, Initial residual = 0.00580049, Final residual = 0.000419571, No Iterations 5
smoothSolver:  Solving for Uy, Initial residual = 0.00374381, Final residual = 0.000253805, No Iterations 5
GAMG:  Solving for p, Initial residual = 0.0067806, Final residual = 0.000261022, No Iterations 3
time step continuity errors : sum local = 0.000658407, global = 8.23865e-05, cumulative = 0.0227461
smoothSolver:  Solving for omega, Initial residual = 5.43549e-05, Final residual = 5.21179e-06, No Iterations 2
smoothSolver:  Solving for k, Initial residual = 0.00197305, Final residual = 0.000158019, No Iterations 4
ExecutionTime = 0.64 s  ClockTime = 0 s

scalarTransport execute: age
smoothSolver:  Solving for age, Initial residual = 0.00884641, Final residual = 0.000813123, No Iterations 12

Time = 50

smoothSolver:  Solving for Ux, Initial residual = 0.00545272, Final residual = 0.00040514, No Iterations 5
smoothSolver:  Solving for Uy, Initial residual = 0.00340024, Final residual = 0.000231307, No Iterations 5
GAMG:  Solving for p, Initial residual = 0.00635889, Final residual = 0.00024154, No Iterations 3
time step continuity errors : sum local = 0.000606888, global = 6.812e-05, cumulative = 0.0228142
smoothSolver:  Solving for omega, Initial residual = 5.25216e-05, Final residual = 4.9948e-06, No Iterations 2
smoothSolver:  Solving for k, Initial residual = 0.0018454, Final residual = 0.000144977, No Iterations 4
ExecutionTime = 0.65 s  ClockTime = 0 s

scalarTransport execute: age
smoothSolver:  Solving for age, Initial residual = 0.00848591, Final residual = 0.000785054, No Iterations 12

Time = 51

smoothSolver:  Solving for Ux, Initial residual = 0.00507969, Final residual = 0.000381013, No Iterations 5
smoothSolver:  Solving for Uy, Initial residual = 0.00312428, Final residual = 0.000211054, No Iterations 5
GAMG:  Solving for p, Initial residual = 0.00602347, Final residual = 0.000238559, No Iterations 3
time step continuity errors : sum local = 0.00059697, global = 5.34193e-05, cumulative = 0.0228676
smoothSolver:  Solving for omega, Initial residual = 4.72824e-05, Final residual = 4.72692e-06, No Iterations 2
smoothSolver:  Solving for k, Initial residual = 0.00172985, Final residual = 0.000133236, No Iterations 4
ExecutionTime = 0.66 s  ClockTime = 0 s

scalarTransport execute: age
smoothSolver:  Solving for age, Initial residual = 0.00827654, Final residual = 0.000774028, No Iterations 12

Time = 52

smoothSolver:  Solving for Ux, Initial residual = 0.0047381, Final residual = 0.000358419, No Iterations 5
smoothSolver:  Solving for Uy, Initial residual = 0.0028865, Final residual = 0.000192873, No Iterations 5
GAMG:  Solving for p, Initial residual = 0.00575814, Final residual = 0.000243489, No Iterations 3
time step continuity errors : sum local = 0.000607097, global = 4.22824e-05, cumulative = 0.0229099
smoothSolver:  Solving for omega, Initial residual = 4.38169e-05, Final residual = 2.25367e-06, No Iterations 3
smoothSolver:  Solving for k, Initial residual = 0.00163148, Final residual = 0.000122829, No Iterations 4
ExecutionTime = 0.67 s  ClockTime = 0 s

scalarTransport execute: age
smoothSolver:  Solving for age, Initial residual = 0.00808387, Final residual = 0.000774515, No Iterations 12

Time = 53

smoothSolver:  Solving for Ux, Initial residual = 0.00444748, Final residual = 0.000338262, No Iterations 5
smoothSolver:  Solving for Uy, Initial residual = 0.00267071, Final residual = 0.000174977, No Iterations 5
GAMG:  Solving for p, Initial residual = 0.00551117, Final residual = 0.00023878, No Iterations 3
time step continuity errors : sum local = 0.000593391, global = 3.02144e-05, cumulative = 0.0229401
smoothSolver:  Solving for omega, Initial residual = 3.99518e-05, Final residual = 2.00757e-06, No Iterations 3
smoothSolver:  Solving for k, Initial residual = 0.00153855, Final residual = 0.000113581, No Iterations 4
ExecutionTime = 0.69 s  ClockTime = 0 s

scalarTransport execute: age
smoothSolver:  Solving for age, Initial residual = 0.00794534, Final residual = 0.000780729, No Iterations 12

Time = 54

smoothSolver:  Solving for Ux, Initial residual = 0.00391447, Final residual = 0.000288608, No Iterations 5
smoothSolver:  Solving for Uy, Initial residual = 0.00293619, Final residual = 0.000261967, No Iterations 4
GAMG:  Solving for p, Initial residual = 0.00523893, Final residual = 0.000238788, No Iterations 3
time step continuity errors : sum local = 0.000591652, global = 1.52572e-05, cumulative = 0.0229554
smoothSolver:  Solving for omega, Initial residual = 3.81401e-05, Final residual = 3.67361e-06, No Iterations 2
smoothSolver:  Solving for k, Initial residual = 0.00144314, Final residual = 0.000105632, No Iterations 4
ExecutionTime = 0.7 s  ClockTime = 0 s

scalarTransport execute: age
smoothSolver:  Solving for age, Initial residual = 0.00780491, Final residual = 0.000689764, No Iterations 13

Time = 55

smoothSolver:  Solving for Ux, Initial residual = 0.00397385, Final residual = 0.000299313, No Iterations 5
smoothSolver:  Solving for Uy, Initial residual = 0.00235317, Final residual = 0.000145168, No Iterations 5
GAMG:  Solving for p, Initial residual = 0.0049942, Final residual = 0.000224718, No Iterations 3
time step continuity errors : sum local = 0.000555404, global = 1.36593e-06, cumulative = 0.0229568
smoothSolver:  Solving for omega, Initial residual = 4.16319e-05, Final residual = 3.74811e-06, No Iterations 2
smoothSolver:  Solving for k, Initial residual = 0.00136247, Final residual = 9.89682e-05, No Iterations 4
ExecutionTime = 0.71 s  ClockTime = 1 s

scalarTransport execute: age
smoothSolver:  Solving for age, Initial residual = 0.00759471, Final residual = 0.000695107, No Iterations 13

Time = 56

smoothSolver:  Solving for Ux, Initial residual = 0.00378344, Final residual = 0.000280794, No Iterations 5
smoothSolver:  Solving for Uy, Initial residual = 0.00219104, Final residual = 0.000218362, No Iterations 4
GAMG:  Solving for p, Initial residual = 0.00467853, Final residual = 0.000212782, No Iterations 3
time step continuity errors : sum local = 0.000524946, global = -1.63341e-05, cumulative = 0.0229404
smoothSolver:  Solving for omega, Initial residual = 3.79005e-05, Final residual = 3.571e-06, No Iterations 2
smoothSolver:  Solving for k, Initial residual = 0.00128238, Final residual = 9.27074e-05, No Iterations 4
ExecutionTime = 0.72 s  ClockTime = 1 s

scalarTransport execute: age
smoothSolver:  Solving for age, Initial residual = 0.00729974, Final residual = 0.000689927, No Iterations 13

Time = 57

smoothSolver:  Solving for Ux, Initial residual = 0.00357299, Final residual = 0.000262296, No Iterations 5
smoothSolver:  Solving for Uy, Initial residual = 0.00208643, Final residual = 0.000205465, No Iterations 4
GAMG:  Solving for p, Initial residual = 0.00440874, Final residual = 0.000194448, No Iterations 3
time step continuity errors : sum local = 0.000479104, global = -3.76922e-05, cumulative = 0.0229027
smoothSolver:  Solving for omega, Initial residual = 3.56803e-05, Final residual = 3.4369e-06, No Iterations 2
smoothSolver:  Solving for k, Initial residual = 0.00120498, Final residual = 8.6615e-05, No Iterations 4
ExecutionTime = 0.73 s  ClockTime = 1 s

scalarTransport execute: age
smoothSolver:  Solving for age, Initial residual = 0.00687929, Final residual = 0.000659392, No Iterations 13

Time = 58

smoothSolver:  Solving for Ux, Initial residual = 0.00337727, Final residual = 0.000240017, No Iterations 5
smoothSolver:  Solving for Uy, Initial residual = 0.00236785, Final residual = 0.000192931, No Iterations 4
GAMG:  Solving for p, Initial residual = 0.00417365, Final residual = 0.000170615, No Iterations 3
time step continuity errors : sum local = 0.000420052, global = -5.2872e-05, cumulative = 0.0228499
smoothSolver:  Solving for omega, Initial residual = 3.90521e-05, Final residual = 3.27313e-06, No Iterations 2
smoothSolver:  Solving for k, Initial residual = 0.00114394, Final residual = 8.06561e-05, No Iterations 4
ExecutionTime = 0.75 s  ClockTime = 1 s

scalarTransport execute: age
smoothSolver:  Solving for age, Initial residual = 0.00646374, Final residual = 0.000612706, No Iterations 13

Time = 59

smoothSolver:  Solving for Ux, Initial residual = 0.00315464, Final residual = 0.000224238, No Iterations 5
smoothSolver:  Solving for Uy, Initial residual = 0.00190701, Final residual = 0.000182634, No Iterations 4
GAMG:  Solving for p, Initial residual = 0.00386258, Final residual = 0.000148527, No Iterations 3
time step continuity errors : sum local = 0.000365704, global = -5.10136e-05, cumulative = 0.0227988
smoothSolver:  Solving for omega, Initial residual = 3.7446e-05, Final residual = 3.14485e-06, No Iterations 2
smoothSolver:  Solving for k, Initial residual = 0.00105787, Final residual = 7.48119e-05, No Iterations 4
ExecutionTime = 0.76 s  ClockTime = 1 s

scalarTransport execute: age
smoothSolver:  Solving for age, Initial residual = 0.00604278, Final residual = 0.000558426, No Iterations 13

Time = 60

smoothSolver:  Solving for Ux, Initial residual = 0.00294061, Final residual = 0.000204897, No Iterations 5
smoothSolver:  Solving for Uy, Initial residual = 0.00180051, Final residual = 0.000173392, No Iterations 4
GAMG:  Solving for p, Initial residual = 0.00359569, Final residual = 0.000138223, No Iterations 3
time step continuity errors : sum local = 0.000340751, global = -4.55914e-05, cumulative = 0.0227533
smoothSolver:  Solving for omega, Initial residual = 3.40077e-05, Final residual = 2.94641e-06, No Iterations 2
smoothSolver:  Solving for k, Initial residual = 0.000959852, Final residual = 6.8964e-05, No Iterations 4
ExecutionTime = 0.77 s  ClockTime = 1 s

scalarTransport execute: age
smoothSolver:  Solving for age, Initial residual = 0.00562179, Final residual = 0.000515165, No Iterations 13

Time = 61

smoothSolver:  Solving for Ux, Initial residual = 0.00272362, Final residual = 0.000186235, No Iterations 5
smoothSolver:  Solving for Uy, Initial residual = 0.00171223, Final residual = 0.000167344, No Iterations 4
GAMG:  Solving for p, Initial residual = 0.00336803, Final residual = 0.000132021, No Iterations 3
time step continuity errors : sum local = 0.000325899, global = -4.29442e-05, cumulative = 0.0227103
smoothSolver:  Solving for omega, Initial residual = 2.93411e-05, Final residual = 2.73039e-06, No Iterations 2
smoothSolver:  Solving for k, Initial residual = 0.000878423, Final residual = 6.31256e-05, No Iterations 4
ExecutionTime = 0.78 s  ClockTime = 1 s

scalarTransport execute: age
smoothSolver:  Solving for age, Initial residual = 0.00533277, Final residual = 0.000489393, No Iterations 13

Time = 62

smoothSolver:  Solving for Ux, Initial residual = 0.00251031, Final residual = 0.000168985, No Iterations 5
smoothSolver:  Solving for Uy, Initial residual = 0.0016282, Final residual = 9.92913e-05, No Iterations 5
GAMG:  Solving for p, Initial residual = 0.00320074, Final residual = 0.000125511, No Iterations 3
time step continuity errors : sum local = 0.000310097, global = -4.04905e-05, cumulative = 0.0226698
smoothSolver:  Solving for omega, Initial residual = 2.24435e-05, Final residual = 1.26288e-06, No Iterations 3
smoothSolver:  Solving for k, Initial residual = 0.000801554, Final residual = 5.7469e-05, No Iterations 4
ExecutionTime = 0.8 s  ClockTime = 1 s

scalarTransport execute: age
smoothSolver:  Solving for age, Initial residual = 0.00505074, Final residual = 0.000473798, No Iterations 13

Time = 63

smoothSolver:  Solving for Ux, Initial residual = 0.00229179, Final residual = 0.000151869, No Iterations 5
smoothSolver:  Solving for Uy, Initial residual = 0.00158184, Final residual = 0.000156219, No Iterations 4
GAMG:  Solving for p, Initial residual = 0.00298853, Final residual = 0.000119878, No Iterations 3
time step continuity errors : sum local = 0.000296389, global = -3.762e-05, cumulative = 0.0226322
smoothSolver:  Solving for omega, Initial residual = 2.06231e-05, Final residual = 1.09489e-06, No Iterations 3
smoothSolver:  Solving for k, Initial residual = 0.00072819, Final residual = 5.20959e-05, No Iterations 4
ExecutionTime = 0.81 s  ClockTime = 1 s

scalarTransport execute: age
smoothSolver:  Solving for age, Initial residual = 0.00481216, Final residual = 0.0004614, No Iterations 13

Time = 64

smoothSolver:  Solving for Ux, Initial residual = 0.00210523, Final residual = 0.000138059, No Iterations 5
smoothSolver:  Solving for Uy, Initial residual = 0.00145832, Final residual = 9.49541e-05, No Iterations 5
GAMG:  Solving for p, Initial residual = 0.00282435, Final residual = 0.000109677, No Iterations 3
time step continuity errors : sum local = 0.000271241, global = -3.38592e-05, cumulative = 0.0225983
smoothSolver:  Solving for omega, Initial residual = 2.03821e-05, Final residual = 1.93242e-06, No Iterations 2
smoothSolver:  Solving for k, Initial residual = 0.000661669, Final residual = 4.70328e-05, No Iterations 4
ExecutionTime = 0.82 s  ClockTime = 1 s

scalarTransport execute: age
smoothSolver:  Solving for age, Initial residual = 0.00460124, Final residual = 0.000434276, No Iterations 13

Time = 65

smoothSolver:  Solving for Ux, Initial residual = 0.00222657, Final residual = 0.000170003, No Iterations 4
smoothSolver:  Solving for Uy, Initial residual = 0.00148334, Final residual = 9.17832e-05, No Iterations 5
GAMG:  Solving for p, Initial residual = 0.00256348, Final residual = 9.79876e-05, No Iterations 3
time step continuity errors : sum local = 0.000242337, global = -2.8459e-05, cumulative = 0.0225699
smoothSolver:  Solving for omega, Initial residual = 1.71026e-05, Final residual = 9.12021e-07, No Iterations 3
smoothSolver:  Solving for k, Initial residual = 0.000602926, Final residual = 4.23854e-05, No Iterations 4
ExecutionTime = 0.83 s  ClockTime = 1 s

scalarTransport execute: age
smoothSolver:  Solving for age, Initial residual = 0.00445719, Final residual = 0.000391493, No Iterations 13

Time = 66

smoothSolver:  Solving for Ux, Initial residual = 0.00175635, Final residual = 0.000115234, No Iterations 5
smoothSolver:  Solving for Uy, Initial residual = 0.00127029, Final residual = 8.68608e-05, No Iterations 5
GAMG:  Solving for p, Initial residual = 0.00250915, Final residual = 0.000106154, No Iterations 3
time step continuity errors : sum local = 0.000262425, global = -2.42718e-05, cumulative = 0.0225456
smoothSolver:  Solving for omega, Initial residual = 1.8581e-05, Final residual = 1.61023e-06, No Iterations 2
smoothSolver:  Solving for k, Initial residual = 0.000560846, Final residual = 3.82722e-05, No Iterations 4
ExecutionTime = 0.84 s  ClockTime = 1 s

scalarTransport execute: age
smoothSolver:  Solving for age, Initial residual = 0.00428124, Final residual = 0.00040662, No Iterations 12

Time = 67

smoothSolver:  Solving for Ux, Initial residual = 0.00157319, Final residual = 0.000102584, No Iterations 5
smoothSolver:  Solving for Uy, Initial residual = 0.00120062, Final residual = 8.26806e-05, No Iterations 5
GAMG:  Solving for p, Initial residual = 0.00235754, Final residual = 0.000101235, No Iterations 3
time step continuity errors : sum local = 0.000250058, global = -2.01167e-05, cumulative = 0.0225255
smoothSolver:  Solving for omega, Initial residual = 1.55791e-05, Final residual = 8.01617e-07, No Iterations 3
smoothSolver:  Solving for k, Initial residual = 0.000525295, Final residual = 3.47089e-05, No Iterations 4
ExecutionTime = 0.86 s  ClockTime = 1 s

scalarTransport execute: age
smoothSolver:  Solving for age, Initial residual = 0.0040953, Final residual = 0.000373331, No Iterations 12

Time = 68

smoothSolver:  Solving for Ux, Initial residual = 0.00140778, Final residual = 9.1066e-05, No Iterations 5
smoothSolver:  Solving for Uy, Initial residual = 0.00112654, Final residual = 7.7629e-05, No Iterations 5
GAMG:  Solving for p, Initial residual = 0.00219495, Final residual = 9.386e-05, No Iterations 3
time step continuity errors : sum local = 0.000231606, global = -1.53138e-05, cumulative = 0.0225102
smoothSolver:  Solving for omega, Initial residual = 1.5381e-05, Final residual = 1.44165e-06, No Iterations 2
smoothSolver:  Solving for k, Initial residual = 0.000492606, Final residual = 3.1576e-05, No Iterations 4
ExecutionTime = 0.87 s  ClockTime = 1 s

scalarTransport execute: age
smoothSolver:  Solving for age, Initial residual = 0.00393068, Final residual = 0.000357131, No Iterations 12

Time = 69

smoothSolver:  Solving for Ux, Initial residual = 0.00127313, Final residual = 8.13468e-05, No Iterations 5
smoothSolver:  Solving for Uy, Initial residual = 0.00104447, Final residual = 7.19437e-05, No Iterations 5
GAMG:  Solving for p, Initial residual = 0.00204224, Final residual = 9.0019e-05, No Iterations 3
time step continuity errors : sum local = 0.000221862, global = -1.22844e-05, cumulative = 0.0224979
smoothSolver:  Solving for omega, Initial residual = 1.60133e-05, Final residual = 1.42005e-06, No Iterations 2
smoothSolver:  Solving for k, Initial residual = 0.000459369, Final residual = 2.88147e-05, No Iterations 4
ExecutionTime = 0.88 s  ClockTime = 1 s

scalarTransport execute: age
smoothSolver:  Solving for age, Initial residual = 0.00380715, Final residual = 0.000345822, No Iterations 12

Time = 70

smoothSolver:  Solving for Ux, Initial residual = 0.00115865, Final residual = 7.34721e-05, No Iterations 5
smoothSolver:  Solving for Uy, Initial residual = 0.000957457, Final residual = 6.58002e-05, No Iterations 5
GAMG:  Solving for p, Initial residual = 0.00190361, Final residual = 8.47482e-05, No Iterations 3
time step continuity errors : sum local = 0.000208575, global = -1.04466e-05, cumulative = 0.0224874
smoothSolver:  Solving for omega, Initial residual = 1.32593e-05, Final residual = 6.84784e-07, No Iterations 3
smoothSolver:  Solving for k, Initial residual = 0.000422368, Final residual = 2.63056e-05, No Iterations 4
ExecutionTime = 0.89 s  ClockTime = 1 s

scalarTransport execute: age
smoothSolver:  Solving for age, Initial residual = 0.00368919, Final residual = 0.00034076, No Iterations 12

Time = 71

smoothSolver:  Solving for Ux, Initial residual = 0.00108072, Final residual = 6.62559e-05, No Iterations 5
smoothSolver:  Solving for Uy, Initial residual = 0.000891731, Final residual = 5.97689e-05, No Iterations 5
GAMG:  Solving for p, Initial residual = 0.00178003, Final residual = 7.75177e-05, No Iterations 3
time step continuity errors : sum local = 0.000190498, global = -9.58875e-06, cumulative = 0.0224779
smoothSolver:  Solving for omega, Initial residual = 1.30789e-05, Final residual = 1.23591e-06, No Iterations 2
smoothSolver:  Solving for k, Initial residual = 0.000383724, Final residual = 2.40314e-05, No Iterations 4
ExecutionTime = 0.91 s  ClockTime = 1 s

scalarTransport execute: age
smoothSolver:  Solving for age, Initial residual = 0.00362171, Final residual = 0.00033664, No Iterations 12

Time = 72

smoothSolver:  Solving for Ux, Initial residual = 0.000985232, Final residual = 6.13219e-05, No Iterations 5
smoothSolver:  Solving for Uy, Initial residual = 0.000806937, Final residual = 5.39586e-05, No Iterations 5
GAMG:  Solving for p, Initial residual = 0.00163495, Final residual = 7.03236e-05, No Iterations 3
time step continuity errors : sum local = 0.000172568, global = -9.85951e-06, cumulative = 0.022468
smoothSolver:  Solving for omega, Initial residual = 1.43396e-05, Final residual = 1.21521e-06, No Iterations 2
smoothSolver:  Solving for k, Initial residual = 0.000344564, Final residual = 2.1987e-05, No Iterations 4
ExecutionTime = 0.92 s  ClockTime = 1 s

scalarTransport execute: age
smoothSolver:  Solving for age, Initial residual = 0.00353814, Final residual = 0.000334932, No Iterations 12

Time = 73

smoothSolver:  Solving for Ux, Initial residual = 0.000908474, Final residual = 5.68065e-05, No Iterations 5
smoothSolver:  Solving for Uy, Initial residual = 0.000730195, Final residual = 4.8638e-05, No Iterations 5
GAMG:  Solving for p, Initial residual = 0.00150154, Final residual = 6.21898e-05, No Iterations 3
time step continuity errors : sum local = 0.000152398, global = -1.11603e-05, cumulative = 0.0224568
smoothSolver:  Solving for omega, Initial residual = 1.48949e-05, Final residual = 1.176e-06, No Iterations 2
smoothSolver:  Solving for k, Initial residual = 0.000307292, Final residual = 2.01052e-05, No Iterations 4
ExecutionTime = 0.93 s  ClockTime = 1 s

scalarTransport execute: age
smoothSolver:  Solving for age, Initial residual = 0.00348851, Final residual = 0.000332963, No Iterations 12

Time = 74

smoothSolver:  Solving for Ux, Initial residual = 0.000841927, Final residual = 5.27143e-05, No Iterations 5
smoothSolver:  Solving for Uy, Initial residual = 0.000685658, Final residual = 4.37458e-05, No Iterations 5
GAMG:  Solving for p, Initial residual = 0.00137875, Final residual = 5.47387e-05, No Iterations 3
time step continuity errors : sum local = 0.000133968, global = -1.33724e-05, cumulative = 0.0224435
smoothSolver:  Solving for omega, Initial residual = 9.68409e-06, Final residual = 5.28413e-07, No Iterations 3
smoothSolver:  Solving for k, Initial residual = 0.000273558, Final residual = 1.82871e-05, No Iterations 4
ExecutionTime = 0.94 s  ClockTime = 1 s

scalarTransport execute: age
smoothSolver:  Solving for age, Initial residual = 0.00343256, Final residual = 0.000329884, No Iterations 12

Time = 75

smoothSolver:  Solving for Ux, Initial residual = 0.00077998, Final residual = 4.9969e-05, No Iterations 5
smoothSolver:  Solving for Uy, Initial residual = 0.00059642, Final residual = 3.95226e-05, No Iterations 5
GAMG:  Solving for p, Initial residual = 0.00125441, Final residual = 4.56427e-05, No Iterations 3
time step continuity errors : sum local = 0.00011158, global = -1.28623e-05, cumulative = 0.0224306
smoothSolver:  Solving for omega, Initial residual = 7.34647e-06, Final residual = 4.60139e-07, No Iterations 3
smoothSolver:  Solving for k, Initial residual = 0.00024297, Final residual = 1.65302e-05, No Iterations 4
ExecutionTime = 0.95 s  ClockTime = 1 s

scalarTransport execute: age
smoothSolver:  Solving for age, Initial residual = 0.00339755, Final residual = 0.000324565, No Iterations 12

Time = 76

smoothSolver:  Solving for Ux, Initial residual = 0.000724563, Final residual = 4.71911e-05, No Iterations 5
smoothSolver:  Solving for Uy, Initial residual = 0.000535171, Final residual = 3.58169e-05, No Iterations 5
GAMG:  Solving for p, Initial residual = 0.00113435, Final residual = 0.000111143, No Iterations 2
time step continuity errors : sum local = 0.000271482, global = -1.46477e-05, cumulative = 0.022416
smoothSolver:  Solving for omega, Initial residual = 7.93732e-06, Final residual = 4.18764e-07, No Iterations 3
smoothSolver:  Solving for k, Initial residual = 0.000214373, Final residual = 1.49346e-05, No Iterations 4
ExecutionTime = 0.97 s  ClockTime = 1 s

scalarTransport execute: age
smoothSolver:  Solving for age, Initial residual = 0.00335151, Final residual = 0.000316927, No Iterations 12

Time = 77

smoothSolver:  Solving for Ux, Initial residual = 0.000715833, Final residual = 4.47731e-05, No Iterations 5
smoothSolver:  Solving for Uy, Initial residual = 0.000477572, Final residual = 3.23281e-05, No Iterations 5
GAMG:  Solving for p, Initial residual = 0.0011269, Final residual = 4.50908e-05, No Iterations 3
time step continuity errors : sum local = 0.00011005, global = -1.30575e-05, cumulative = 0.0224029
smoothSolver:  Solving for omega, Initial residual = 8.50386e-06, Final residual = 7.29821e-07, No Iterations 2
smoothSolver:  Solving for k, Initial residual = 0.000190605, Final residual = 1.34522e-05, No Iterations 4
ExecutionTime = 0.98 s  ClockTime = 1 s

scalarTransport execute: age
smoothSolver:  Solving for age, Initial residual = 0.00331821, Final residual = 0.000308817, No Iterations 12

Time = 78

smoothSolver:  Solving for Ux, Initial residual = 0.000613644, Final residual = 4.16967e-05, No Iterations 5
smoothSolver:  Solving for Uy, Initial residual = 0.000432781, Final residual = 2.9807e-05, No Iterations 5
GAMG:  Solving for p, Initial residual = 0.000908537, Final residual = 7.83865e-05, No Iterations 2
time step continuity errors : sum local = 0.000191221, global = -1.304e-05, cumulative = 0.0223899
smoothSolver:  Solving for omega, Initial residual = 1.02554e-05, Final residual = 7.262e-07, No Iterations 2
smoothSolver:  Solving for k, Initial residual = 0.000170644, Final residual = 1.21876e-05, No Iterations 4
ExecutionTime = 0.99 s  ClockTime = 1 s

scalarTransport execute: age
smoothSolver:  Solving for age, Initial residual = 0.00323571, Final residual = 0.000299786, No Iterations 12

Time = 79

smoothSolver:  Solving for Ux, Initial residual = 0.00056558, Final residual = 3.99547e-05, No Iterations 5
smoothSolver:  Solving for Uy, Initial residual = 0.000383461, Final residual = 2.72712e-05, No Iterations 5
GAMG:  Solving for p, Initial residual = 0.000895895, Final residual = 3.67149e-05, No Iterations 3
time step continuity errors : sum local = 8.95173e-05, global = -1.03164e-05, cumulative = 0.0223795
smoothSolver:  Solving for omega, Initial residual = 8.36562e-06, Final residual = 6.7019e-07, No Iterations 2
smoothSolver:  Solving for k, Initial residual = 0.000154427, Final residual = 1.09554e-05, No Iterations 4
ExecutionTime = 1 s  ClockTime = 1 s

scalarTransport execute: age
smoothSolver:  Solving for age, Initial residual = 0.0031473, Final residual = 0.000289643, No Iterations 12

Time = 80

smoothSolver:  Solving for Ux, Initial residual = 0.000537452, Final residual = 3.64658e-05, No Iterations 5
smoothSolver:  Solving for Uy, Initial residual = 0.000391107, Final residual = 2.54866e-05, No Iterations 5
GAMG:  Solving for p, Initial residual = 0.000767026, Final residual = 6.65629e-05, No Iterations 2
time step continuity errors : sum local = 0.000162251, global = -9.01048e-06, cumulative = 0.0223705
smoothSolver:  Solving for omega, Initial residual = 7.49671e-06, Final residual = 5.95274e-07, No Iterations 2
smoothSolver:  Solving for k, Initial residual = 0.000140454, Final residual = 9.89025e-06, No Iterations 4
ExecutionTime = 1.02 s  ClockTime = 1 s

scalarTransport execute: age
smoothSolver:  Solving for age, Initial residual = 0.00304368, Final residual = 0.000279878, No Iterations 12

Time = 81

smoothSolver:  Solving for Ux, Initial residual = 0.000495394, Final residual = 3.55418e-05, No Iterations 5
smoothSolver:  Solving for Uy, Initial residual = 0.000327386, Final residual = 2.36885e-05, No Iterations 5
GAMG:  Solving for p, Initial residual = 0.000774228, Final residual = 2.98299e-05, No Iterations 3
time step continuity errors : sum local = 7.26834e-05, global = -7.68974e-06, cumulative = 0.0223628
smoothSolver:  Solving for omega, Initial residual = 6.79379e-06, Final residual = 5.70048e-07, No Iterations 2
smoothSolver:  Solving for k, Initial residual = 0.000127945, Final residual = 8.90577e-06, No Iterations 4
ExecutionTime = 1.03 s  ClockTime = 1 s

scalarTransport execute: age
smoothSolver:  Solving for age, Initial residual = 0.0029692, Final residual = 0.000268933, No Iterations 12

Time = 82

smoothSolver:  Solving for Ux, Initial residual = 0.000466714, Final residual = 3.32503e-05, No Iterations 5
smoothSolver:  Solving for Uy, Initial residual = 0.000313503, Final residual = 2.24445e-05, No Iterations 5
GAMG:  Solving for p, Initial residual = 0.000662505, Final residual = 6.04006e-05, No Iterations 2
time step continuity errors : sum local = 0.000147139, global = -6.50889e-06, cumulative = 0.0223563
smoothSolver:  Solving for omega, Initial residual = 5.09553e-06, Final residual = 5.01303e-07, No Iterations 2
smoothSolver:  Solving for k, Initial residual = 0.000116648, Final residual = 8.08729e-06, No Iterations 4
ExecutionTime = 1.04 s  ClockTime = 1 s

scalarTransport execute: age
smoothSolver:  Solving for age, Initial residual = 0.00288793, Final residual = 0.000257923, No Iterations 12

Time = 83

smoothSolver:  Solving for Ux, Initial residual = 0.000444624, Final residual = 3.19634e-05, No Iterations 5
smoothSolver:  Solving for Uy, Initial residual = 0.00029112, Final residual = 2.11995e-05, No Iterations 5
GAMG:  Solving for p, Initial residual = 0.000683019, Final residual = 3.01051e-05, No Iterations 3
time step continuity errors : sum local = 7.33145e-05, global = -5.96001e-06, cumulative = 0.0223504
smoothSolver:  Solving for omega, Initial residual = 5.69725e-06, Final residual = 4.88277e-07, No Iterations 2
smoothSolver:  Solving for k, Initial residual = 0.000107128, Final residual = 7.35655e-06, No Iterations 4
ExecutionTime = 1.05 s  ClockTime = 1 s

scalarTransport execute: age
smoothSolver:  Solving for age, Initial residual = 0.00280894, Final residual = 0.000247112, No Iterations 12

Time = 84

smoothSolver:  Solving for Ux, Initial residual = 0.000423135, Final residual = 3.00632e-05, No Iterations 5
smoothSolver:  Solving for Uy, Initial residual = 0.000288956, Final residual = 1.99324e-05, No Iterations 5
GAMG:  Solving for p, Initial residual = 0.000607937, Final residual = 5.80859e-05, No Iterations 2
time step continuity errors : sum local = 0.000141418, global = -4.76385e-06, cumulative = 0.0223456
smoothSolver:  Solving for omega, Initial residual = 5.04585e-06, Final residual = 4.52609e-07, No Iterations 2
smoothSolver:  Solving for k, Initial residual = 9.92796e-05, Final residual = 6.77245e-06, No Iterations 4
ExecutionTime = 1.06 s  ClockTime = 1 s

scalarTransport execute: age
smoothSolver:  Solving for age, Initial residual = 0.00270526, Final residual = 0.000234519, No Iterations 12

Time = 85

smoothSolver:  Solving for Ux, Initial residual = 0.000398703, Final residual = 2.85633e-05, No Iterations 5
smoothSolver:  Solving for Uy, Initial residual = 0.000268538, Final residual = 1.89701e-05, No Iterations 5
GAMG:  Solving for p, Initial residual = 0.000615459, Final residual = 2.78779e-05, No Iterations 3
time step continuity errors : sum local = 6.7853e-05, global = -3.16223e-06, cumulative = 0.0223424
smoothSolver:  Solving for omega, Initial residual = 4.56358e-06, Final residual = 4.2691e-07, No Iterations 2
smoothSolver:  Solving for k, Initial residual = 9.28418e-05, Final residual = 6.25418e-06, No Iterations 4
ExecutionTime = 1.07 s  ClockTime = 1 s

scalarTransport execute: age
smoothSolver:  Solving for age, Initial residual = 0.00261062, Final residual = 0.000257886, No Iterations 11

Time = 86

smoothSolver:  Solving for Ux, Initial residual = 0.000378199, Final residual = 2.65921e-05, No Iterations 5
smoothSolver:  Solving for Uy, Initial residual = 0.000256727, Final residual = 1.79796e-05, No Iterations 5
GAMG:  Solving for p, Initial residual = 0.000534386, Final residual = 2.11204e-05, No Iterations 3
time step continuity errors : sum local = 5.13931e-05, global = -1.12121e-06, cumulative = 0.0223413
smoothSolver:  Solving for omega, Initial residual = 4.16775e-06, Final residual = 4.11404e-07, No Iterations 2
smoothSolver:  Solving for k, Initial residual = 8.97317e-05, Final residual = 5.83018e-06, No Iterations 4
ExecutionTime = 1.09 s  ClockTime = 1 s

scalarTransport execute: age
smoothSolver:  Solving for age, Initial residual = 0.00251607, Final residual = 0.000242607, No Iterations 11

Time = 87

smoothSolver:  Solving for Ux, Initial residual = 0.000356198, Final residual = 2.47266e-05, No Iterations 5
smoothSolver:  Solving for Uy, Initial residual = 0.000254484, Final residual = 1.71836e-05, No Iterations 5
GAMG:  Solving for p, Initial residual = 0.000518449, Final residual = 2.1528e-05, No Iterations 3
time step continuity errors : sum local = 5.23716e-05, global = 5.4267e-07, cumulative = 0.0223419
smoothSolver:  Solving for omega, Initial residual = 3.26971e-06, Final residual = 1.99161e-07, No Iterations 3
smoothSolver:  Solving for k, Initial residual = 8.66346e-05, Final residual = 5.43897e-06, No Iterations 4
ExecutionTime = 1.1 s  ClockTime = 1 s

scalarTransport execute: age
smoothSolver:  Solving for age, Initial residual = 0.00241154, Final residual = 0.000226655, No Iterations 11

Time = 88

smoothSolver:  Solving for Ux, Initial residual = 0.000336988, Final residual = 2.27659e-05, No Iterations 5
smoothSolver:  Solving for Uy, Initial residual = 0.000237873, Final residual = 1.6136e-05, No Iterations 5
GAMG:  Solving for p, Initial residual = 0.000493412, Final residual = 2.14391e-05, No Iterations 3
time step continuity errors : sum local = 5.21387e-05, global = 2.20289e-06, cumulative = 0.0223441
smoothSolver:  Solving for omega, Initial residual = 4.07066e-06, Final residual = 3.55618e-07, No Iterations 2
smoothSolver:  Solving for k, Initial residual = 8.31812e-05, Final residual = 5.09248e-06, No Iterations 4
ExecutionTime = 1.11 s  ClockTime = 1 s

scalarTransport execute: age
smoothSolver:  Solving for age, Initial residual = 0.00230588, Final residual = 0.000209959, No Iterations 11

Time = 89

smoothSolver:  Solving for Ux, Initial residual = 0.000316314, Final residual = 2.09143e-05, No Iterations 5
smoothSolver:  Solving for Uy, Initial residual = 0.000228836, Final residual = 1.49267e-05, No Iterations 5
GAMG:  Solving for p, Initial residual = 0.000465101, Final residual = 1.97246e-05, No Iterations 3
time step continuity errors : sum local = 4.79533e-05, global = 3.83193e-06, cumulative = 0.0223479
smoothSolver:  Solving for omega, Initial residual = 4.30023e-06, Final residual = 3.52783e-07, No Iterations 2
smoothSolver:  Solving for k, Initial residual = 7.95945e-05, Final residual = 4.80892e-06, No Iterations 4
ExecutionTime = 1.12 s  ClockTime = 1 s

scalarTransport execute: age
smoothSolver:  Solving for age, Initial residual = 0.00221501, Final residual = 0.000193173, No Iterations 11

Time = 90

smoothSolver:  Solving for Ux, Initial residual = 0.000302618, Final residual = 1.88109e-05, No Iterations 5
smoothSolver:  Solving for Uy, Initial residual = 0.000252401, Final residual = 2.26949e-05, No Iterations 4
GAMG:  Solving for p, Initial residual = 0.000431602, Final residual = 1.72015e-05, No Iterations 3
time step continuity errors : sum local = 4.18062e-05, global = 4.72739e-06, cumulative = 0.0223526
smoothSolver:  Solving for omega, Initial residual = 3.80078e-06, Final residual = 3.30072e-07, No Iterations 2
smoothSolver:  Solving for k, Initial residual = 7.51545e-05, Final residual = 4.52273e-06, No Iterations 4
ExecutionTime = 1.14 s  ClockTime = 1 s

scalarTransport execute: age
smoothSolver:  Solving for age, Initial residual = 0.00213635, Final residual = 0.000207224, No Iterations 10

Time = 91

smoothSolver:  Solving for Ux, Initial residual = 0.000272875, Final residual = 1.70572e-05, No Iterations 5
smoothSolver:  Solving for Uy, Initial residual = 0.000202195, Final residual = 1.29052e-05, No Iterations 5
GAMG:  Solving for p, Initial residual = 0.000402812, Final residual = 3.98954e-05, No Iterations 2
time step continuity errors : sum local = 9.69285e-05, global = 6.0461e-06, cumulative = 0.0223587
smoothSolver:  Solving for omega, Initial residual = 4.05188e-06, Final residual = 3.28669e-07, No Iterations 2
smoothSolver:  Solving for k, Initial residual = 7.01137e-05, Final residual = 4.25761e-06, No Iterations 4
ExecutionTime = 1.15 s  ClockTime = 1 s

scalarTransport execute: age
smoothSolver:  Solving for age, Initial residual = 0.00205376, Final residual = 0.000189587, No Iterations 10

Time = 92

smoothSolver:  Solving for Ux, Initial residual = 0.000259513, Final residual = 1.57564e-05, No Iterations 5
smoothSolver:  Solving for Uy, Initial residual = 0.000182613, Final residual = 1.16071e-05, No Iterations 5
GAMG:  Solving for p, Initial residual = 0.000402848, Final residual = 3.95934e-05, No Iterations 2
time step continuity errors : sum local = 9.61671e-05, global = 7.46194e-06, cumulative = 0.0223661
smoothSolver:  Solving for omega, Initial residual = 3.29918e-06, Final residual = 3.00278e-07, No Iterations 2
smoothSolver:  Solving for k, Initial residual = 6.48422e-05, Final residual = 3.9861e-06, No Iterations 4
ExecutionTime = 1.16 s  ClockTime = 1 s

scalarTransport execute: age
smoothSolver:  Solving for age, Initial residual = 0.00199278, Final residual = 0.000175639, No Iterations 10

Time = 93

smoothSolver:  Solving for Ux, Initial residual = 0.000236454, Final residual = 1.44313e-05, No Iterations 5
smoothSolver:  Solving for Uy, Initial residual = 0.000166019, Final residual = 1.03791e-05, No Iterations 5
GAMG:  Solving for p, Initial residual = 0.000356058, Final residual = 3.12634e-05, No Iterations 2
time step continuity errors : sum local = 7.59116e-05, global = 7.41802e-06, cumulative = 0.0223736
smoothSolver:  Solving for omega, Initial residual = 3.94619e-06, Final residual = 2.97252e-07, No Iterations 2
smoothSolver:  Solving for k, Initial residual = 5.89814e-05, Final residual = 3.7142e-06, No Iterations 4
ExecutionTime = 1.17 s  ClockTime = 1 s

scalarTransport execute: age
smoothSolver:  Solving for age, Initial residual = 0.00193017, Final residual = 0.000165362, No Iterations 10

Time = 94

smoothSolver:  Solving for Ux, Initial residual = 0.000303408, Final residual = 2.13916e-05, No Iterations 4
smoothSolver:  Solving for Uy, Initial residual = 0.00018065, Final residual = 1.54922e-05, No Iterations 4
GAMG:  Solving for p, Initial residual = 0.00031982, Final residual = 2.41398e-05, No Iterations 2
time step continuity errors : sum local = 5.85971e-05, global = 6.25496e-06, cumulative = 0.0223798
smoothSolver:  Solving for omega, Initial residual = 4.76252e-06, Final residual = 2.95679e-07, No Iterations 2
smoothSolver:  Solving for k, Initial residual = 5.36323e-05, Final residual = 3.43766e-06, No Iterations 4
ExecutionTime = 1.18 s  ClockTime = 1 s

scalarTransport execute: age
smoothSolver:  Solving for age, Initial residual = 0.00185379, Final residual = 0.000159427, No Iterations 10

Time = 95

smoothSolver:  Solving for Ux, Initial residual = 0.000205822, Final residual = 2.05265e-05, No Iterations 4
smoothSolver:  Solving for Uy, Initial residual = 0.000142534, Final residual = 8.8142e-06, No Iterations 5
GAMG:  Solving for p, Initial residual = 0.000302458, Final residual = 2.2849e-05, No Iterations 2
time step continuity errors : sum local = 5.54488e-05, global = 5.02463e-06, cumulative = 0.0223848
[...]
smoothSolver:  Solving for Uy, Initial residual = 6.9566e-06, Final residual = 3.55557e-07, No Iterations 2
GAMG:  Solving for p, Initial residual = 1.54061e-05, Final residual = 8.91782e-07, No Iterations 2
time step continuity errors : sum local = 2.1599e-06, global = -4.03731e-08, cumulative = 0.0224445
smoothSolver:  Solving for omega, Initial residual = 2.3469e-06, Final residual = 9.58682e-08, No Iterations 1
smoothSolver:  Solving for k, Initial residual = 1.67989e-07, Final residual = 1.10005e-08, No Iterations 2
ExecutionTime = 21.78 s  ClockTime = 22 s

scalarTransport execute: age
smoothSolver:  Solving for age, Initial residual = 3.04536e-05, Final residual = 2.91509e-06, No Iterations 11

Time = 1978

smoothSolver:  Solving for Ux, Initial residual = 1.62546e-05, Final residual = 1.37817e-06, No Iterations 1
smoothSolver:  Solving for Uy, Initial residual = 7.23644e-06, Final residual = 4.05326e-07, No Iterations 2
GAMG:  Solving for p, Initial residual = 2.15698e-05, Final residual = 9.7611e-07, No Iterations 3
time step continuity errors : sum local = 2.36414e-06, global = -2.97387e-08, cumulative = 0.0224445
smoothSolver:  Solving for omega, Initial residual = 2.63213e-06, Final residual = 1.42261e-07, No Iterations 1
smoothSolver:  Solving for k, Initial residual = 2.0533e-07, Final residual = 2.02621e-08, No Iterations 1
ExecutionTime = 21.79 s  ClockTime = 22 s

scalarTransport execute: age
smoothSolver:  Solving for age, Initial residual = 2.94975e-05, Final residual = 2.90803e-06, No Iterations 11

Time = 1979

smoothSolver:  Solving for Ux, Initial residual = 1.42615e-05, Final residual = 7.06573e-07, No Iterations 2
smoothSolver:  Solving for Uy, Initial residual = 2.33671e-05, Final residual = 1.35952e-06, No Iterations 1
GAMG:  Solving for p, Initial residual = 2.83167e-05, Final residual = 2.81783e-06, No Iterations 2
time step continuity errors : sum local = 6.82477e-06, global = -2.48252e-08, cumulative = 0.0224444
smoothSolver:  Solving for omega, Initial residual = 4.29806e-06, Final residual = 2.37163e-07, No Iterations 1
smoothSolver:  Solving for k, Initial residual = 3.20042e-07, Final residual = 2.17888e-08, No Iterations 1
ExecutionTime = 21.8 s  ClockTime = 22 s

scalarTransport execute: age
smoothSolver:  Solving for age, Initial residual = 3.45798e-05, Final residual = 3.20198e-06, No Iterations 11

Time = 1980

smoothSolver:  Solving for Ux, Initial residual = 6.70339e-06, Final residual = 5.76748e-07, No Iterations 2
smoothSolver:  Solving for Uy, Initial residual = 7.22905e-06, Final residual = 3.97591e-07, No Iterations 2
GAMG:  Solving for p, Initial residual = 1.90392e-05, Final residual = 1.75268e-06, No Iterations 2
time step continuity errors : sum local = 4.24499e-06, global = -1.94038e-08, cumulative = 0.0224444
smoothSolver:  Solving for omega, Initial residual = 4.26673e-06, Final residual = 2.2582e-07, No Iterations 1
smoothSolver:  Solving for k, Initial residual = 2.16149e-07, Final residual = 2.04179e-08, No Iterations 1
ExecutionTime = 21.81 s  ClockTime = 22 s

scalarTransport execute: age
smoothSolver:  Solving for age, Initial residual = 3.61761e-05, Final residual = 3.55883e-06, No Iterations 10

Time = 1981

smoothSolver:  Solving for Ux, Initial residual = 0.00016443, Final residual = 1.00966e-06, No Iterations 1
smoothSolver:  Solving for Uy, Initial residual = 0.000141276, Final residual = 8.3037e-07, No Iterations 1
GAMG:  Solving for p, Initial residual = 2.06307e-05, Final residual = 1.76029e-06, No Iterations 2
time step continuity errors : sum local = 4.26342e-06, global = -1.29743e-08, cumulative = 0.0224444
smoothSolver:  Solving for omega, Initial residual = 3.02915e-06, Final residual = 1.27422e-07, No Iterations 1
smoothSolver:  Solving for k, Initial residual = 4.79773e-07, Final residual = 2.68035e-08, No Iterations 1
ExecutionTime = 21.82 s  ClockTime = 22 s

scalarTransport execute: age
smoothSolver:  Solving for age, Initial residual = 3.25565e-05, Final residual = 3.16613e-06, No Iterations 11

Time = 1982

smoothSolver:  Solving for Ux, Initial residual = 6.58467e-06, Final residual = 5.45993e-07, No Iterations 2
smoothSolver:  Solving for Uy, Initial residual = 6.67843e-06, Final residual = 4.17302e-07, No Iterations 2
GAMG:  Solving for p, Initial residual = 1.9536e-05, Final residual = 1.57188e-06, No Iterations 2
time step continuity errors : sum local = 3.80709e-06, global = -5.2178e-10, cumulative = 0.0224444
smoothSolver:  Solving for omega, Initial residual = 3.54146e-06, Final residual = 1.81104e-07, No Iterations 1
smoothSolver:  Solving for k, Initial residual = 4.218e-07, Final residual = 2.53385e-08, No Iterations 1
ExecutionTime = 21.83 s  ClockTime = 22 s

scalarTransport execute: age
smoothSolver:  Solving for age, Initial residual = 3.32083e-05, Final residual = 3.06816e-06, No Iterations 11

Time = 1983

smoothSolver:  Solving for Ux, Initial residual = 2.99196e-05, Final residual = 1.16439e-06, No Iterations 1
smoothSolver:  Solving for Uy, Initial residual = 7.47429e-06, Final residual = 6.82534e-07, No Iterations 1
GAMG:  Solving for p, Initial residual = 1.82976e-05, Final residual = 7.63597e-07, No Iterations 3
time step continuity errors : sum local = 1.84944e-06, global = 1.86897e-08, cumulative = 0.0224444
smoothSolver:  Solving for omega, Initial residual = 4.01032e-06, Final residual = 2.16267e-07, No Iterations 1
smoothSolver:  Solving for k, Initial residual = 2.93093e-07, Final residual = 2.33349e-08, No Iterations 1
ExecutionTime = 21.84 s  ClockTime = 22 s

scalarTransport execute: age
smoothSolver:  Solving for age, Initial residual = 2.74099e-05, Final residual = 2.55338e-06, No Iterations 12

Time = 1984

smoothSolver:  Solving for Ux, Initial residual = 6.43477e-06, Final residual = 4.49481e-07, No Iterations 2
smoothSolver:  Solving for Uy, Initial residual = 5.18394e-06, Final residual = 4.17756e-07, No Iterations 2
GAMG:  Solving for p, Initial residual = 1.83561e-05, Final residual = 1.12515e-06, No Iterations 2
time step continuity errors : sum local = 2.7251e-06, global = 3.67132e-08, cumulative = 0.0224445
smoothSolver:  Solving for omega, Initial residual = 3.95048e-06, Final residual = 2.21575e-07, No Iterations 1
smoothSolver:  Solving for k, Initial residual = 2.6952e-07, Final residual = 2.45843e-08, No Iterations 1
ExecutionTime = 21.85 s  ClockTime = 22 s

scalarTransport execute: age
smoothSolver:  Solving for age, Initial residual = 2.59648e-05, Final residual = 2.54971e-06, No Iterations 12

Time = 1985

smoothSolver:  Solving for Ux, Initial residual = 5.02577e-06, Final residual = 4.6592e-07, No Iterations 2
smoothSolver:  Solving for Uy, Initial residual = 4.94375e-06, Final residual = 3.69217e-07, No Iterations 2
GAMG:  Solving for p, Initial residual = 1.45238e-05, Final residual = 1.10567e-06, No Iterations 2
time step continuity errors : sum local = 2.67793e-06, global = 4.82078e-08, cumulative = 0.0224445
smoothSolver:  Solving for omega, Initial residual = 3.24526e-06, Final residual = 1.45136e-07, No Iterations 1
smoothSolver:  Solving for k, Initial residual = 1.9108e-07, Final residual = 1.23501e-08, No Iterations 2
ExecutionTime = 21.86 s  ClockTime = 22 s

scalarTransport execute: age
smoothSolver:  Solving for age, Initial residual = 2.3607e-05, Final residual = 2.14983e-06, No Iterations 13

Time = 1986

smoothSolver:  Solving for Ux, Initial residual = 4.05443e-06, Final residual = 2.54773e-07, No Iterations 3
smoothSolver:  Solving for Uy, Initial residual = 3.40609e-06, Final residual = 3.08812e-07, No Iterations 2
GAMG:  Solving for p, Initial residual = 1.36745e-05, Final residual = 1.10223e-06, No Iterations 2
time step continuity errors : sum local = 2.66959e-06, global = 5.72702e-08, cumulative = 0.0224446
smoothSolver:  Solving for omega, Initial residual = 2.69593e-06, Final residual = 1.65903e-07, No Iterations 1
smoothSolver:  Solving for k, Initial residual = 1.64428e-07, Final residual = 1.1571e-08, No Iterations 2
ExecutionTime = 21.87 s  ClockTime = 22 s

scalarTransport execute: age
smoothSolver:  Solving for age, Initial residual = 2.39887e-05, Final residual = 2.1544e-06, No Iterations 13

Time = 1987

smoothSolver:  Solving for Ux, Initial residual = 1.93483e-05, Final residual = 1.03934e-06, No Iterations 1
smoothSolver:  Solving for Uy, Initial residual = 3.71218e-06, Final residual = 2.74241e-07, No Iterations 2
GAMG:  Solving for p, Initial residual = 1.35344e-05, Final residual = 6.43147e-07, No Iterations 3
time step continuity errors : sum local = 1.5577e-06, global = 5.54612e-08, cumulative = 0.0224446
smoothSolver:  Solving for omega, Initial residual = 3.06514e-06, Final residual = 1.08734e-07, No Iterations 1
smoothSolver:  Solving for k, Initial residual = 1.92235e-07, Final residual = 1.06482e-08, No Iterations 2
ExecutionTime = 21.9 s  ClockTime = 22 s

scalarTransport execute: age
smoothSolver:  Solving for age, Initial residual = 2.35342e-05, Final residual = 2.13823e-06, No Iterations 13

Time = 1988

smoothSolver:  Solving for Ux, Initial residual = 0.000131478, Final residual = 1.19878e-06, No Iterations 1
smoothSolver:  Solving for Uy, Initial residual = 6.08737e-05, Final residual = 8.01066e-07, No Iterations 1
GAMG:  Solving for p, Initial residual = 1.65835e-05, Final residual = 8.77782e-07, No Iterations 3
time step continuity errors : sum local = 2.12599e-06, global = 4.74679e-08, cumulative = 0.0224447
smoothSolver:  Solving for omega, Initial residual = 3.87518e-06, Final residual = 2.24097e-07, No Iterations 1
smoothSolver:  Solving for k, Initial residual = 3.42873e-07, Final residual = 2.6302e-08, No Iterations 1
ExecutionTime = 21.91 s  ClockTime = 22 s

scalarTransport execute: age
smoothSolver:  Solving for age, Initial residual = 2.49681e-05, Final residual = 2.42268e-06, No Iterations 12

Time = 1989

smoothSolver:  Solving for Ux, Initial residual = 8.72497e-06, Final residual = 7.2492e-07, No Iterations 2
smoothSolver:  Solving for Uy, Initial residual = 4.58219e-06, Final residual = 4.28524e-07, No Iterations 2
GAMG:  Solving for p, Initial residual = 1.50076e-05, Final residual = 8.88984e-07, No Iterations 3
time step continuity errors : sum local = 2.15311e-06, global = 3.31879e-08, cumulative = 0.0224447
smoothSolver:  Solving for omega, Initial residual = 3.71232e-06, Final residual = 1.9584e-07, No Iterations 1
smoothSolver:  Solving for k, Initial residual = 2.91674e-07, Final residual = 2.69594e-08, No Iterations 1
ExecutionTime = 21.92 s  ClockTime = 22 s

scalarTransport execute: age
smoothSolver:  Solving for age, Initial residual = 2.5697e-05, Final residual = 2.36362e-06, No Iterations 12

Time = 1990

smoothSolver:  Solving for Ux, Initial residual = 5.82058e-06, Final residual = 5.23238e-07, No Iterations 2
smoothSolver:  Solving for Uy, Initial residual = 4.8154e-06, Final residual = 3.42185e-07, No Iterations 2
GAMG:  Solving for p, Initial residual = 1.75754e-05, Final residual = 1.72089e-06, No Iterations 2
time step continuity errors : sum local = 4.168e-06, global = 2.29521e-08, cumulative = 0.0224447
smoothSolver:  Solving for omega, Initial residual = 1.82289e-06, Final residual = 9.74897e-08, No Iterations 1
smoothSolver:  Solving for k, Initial residual = 2.25531e-07, Final residual = 1.25121e-08, No Iterations 2
ExecutionTime = 21.93 s  ClockTime = 22 s

scalarTransport execute: age
smoothSolver:  Solving for age, Initial residual = 2.50462e-05, Final residual = 2.30452e-06, No Iterations 12

Time = 1991

smoothSolver:  Solving for Ux, Initial residual = 4.18554e-06, Final residual = 2.3671e-07, No Iterations 3
smoothSolver:  Solving for Uy, Initial residual = 4.40328e-06, Final residual = 3.15437e-07, No Iterations 2
GAMG:  Solving for p, Initial residual = 1.49435e-05, Final residual = 1.4325e-06, No Iterations 2
time step continuity errors : sum local = 3.4695e-06, global = 1.14771e-08, cumulative = 0.0224447
smoothSolver:  Solving for omega, Initial residual = 1.97759e-06, Final residual = 1.50437e-07, No Iterations 1
smoothSolver:  Solving for k, Initial residual = 1.78665e-07, Final residual = 1.19116e-08, No Iterations 2
ExecutionTime = 21.94 s  ClockTime = 22 s

scalarTransport execute: age
smoothSolver:  Solving for age, Initial residual = 2.5563e-05, Final residual = 2.28916e-06, No Iterations 12

Time = 1992

smoothSolver:  Solving for Ux, Initial residual = 3.89838e-06, Final residual = 3.81753e-07, No Iterations 2
smoothSolver:  Solving for Uy, Initial residual = 4.55912e-06, Final residual = 3.11634e-07, No Iterations 2
GAMG:  Solving for p, Initial residual = 1.26595e-05, Final residual = 9.67111e-07, No Iterations 2
time step continuity errors : sum local = 2.34234e-06, global = 2.14818e-09, cumulative = 0.0224447
smoothSolver:  Solving for omega, Initial residual = 4.18791e-06, Final residual = 1.56646e-07, No Iterations 1
smoothSolver:  Solving for k, Initial residual = 1.63997e-07, Final residual = 1.15707e-08, No Iterations 2
ExecutionTime = 21.95 s  ClockTime = 22 s

scalarTransport execute: age
smoothSolver:  Solving for age, Initial residual = 2.62554e-05, Final residual = 2.61756e-06, No Iterations 11

Time = 1993

smoothSolver:  Solving for Ux, Initial residual = 4.85926e-06, Final residual = 4.42762e-07, No Iterations 2
smoothSolver:  Solving for Uy, Initial residual = 3.21076e-06, Final residual = 2.88966e-07, No Iterations 2
GAMG:  Solving for p, Initial residual = 1.23261e-05, Final residual = 5.44805e-07, No Iterations 3
time step continuity errors : sum local = 1.31951e-06, global = -7.48169e-09, cumulative = 0.0224447
smoothSolver:  Solving for omega, Initial residual = 4.86583e-06, Final residual = 1.80527e-07, No Iterations 1
smoothSolver:  Solving for k, Initial residual = 1.53512e-07, Final residual = 1.14247e-08, No Iterations 2
ExecutionTime = 21.96 s  ClockTime = 22 s

scalarTransport execute: age
smoothSolver:  Solving for age, Initial residual = 2.47384e-05, Final residual = 2.25035e-06, No Iterations 12

Time = 1994

smoothSolver:  Solving for Ux, Initial residual = 3.38418e-06, Final residual = 3.34116e-07, No Iterations 2
smoothSolver:  Solving for Uy, Initial residual = 2.55134e-06, Final residual = 2.19096e-07, No Iterations 2
GAMG:  Solving for p, Initial residual = 8.79883e-06, Final residual = 8.2575e-07, No Iterations 2
time step continuity errors : sum local = 1.99996e-06, global = -1.44978e-08, cumulative = 0.0224447
smoothSolver:  Solving for omega, Initial residual = 3.40994e-06, Final residual = 1.86592e-07, No Iterations 1
smoothSolver:  Solving for k, Initial residual = 1.30918e-07, Final residual = 1.14359e-08, No Iterations 2
ExecutionTime = 21.97 s  ClockTime = 22 s

scalarTransport execute: age
smoothSolver:  Solving for age, Initial residual = 2.48211e-05, Final residual = 2.23541e-06, No Iterations 12

Time = 1995

smoothSolver:  Solving for Ux, Initial residual = 3.93257e-05, Final residual = 1.28704e-06, No Iterations 1
smoothSolver:  Solving for Uy, Initial residual = 2.47374e-05, Final residual = 8.65957e-07, No Iterations 1
GAMG:  Solving for p, Initial residual = 2.79038e-05, Final residual = 2.60723e-06, No Iterations 2
time step continuity errors : sum local = 6.3147e-06, global = -1.54818e-08, cumulative = 0.0224447
smoothSolver:  Solving for omega, Initial residual = 4.59224e-06, Final residual = 2.31605e-07, No Iterations 1
smoothSolver:  Solving for k, Initial residual = 4.64644e-07, Final residual = 2.43448e-08, No Iterations 1
ExecutionTime = 21.98 s  ClockTime = 22 s

scalarTransport execute: age
smoothSolver:  Solving for age, Initial residual = 2.70935e-05, Final residual = 2.40207e-06, No Iterations 12

Time = 1996

smoothSolver:  Solving for Ux, Initial residual = 9.74349e-06, Final residual = 6.12496e-07, No Iterations 2
smoothSolver:  Solving for Uy, Initial residual = 8.15113e-06, Final residual = 4.89007e-07, No Iterations 2
GAMG:  Solving for p, Initial residual = 2.31966e-05, Final residual = 1.73247e-06, No Iterations 2
time step continuity errors : sum local = 4.19602e-06, global = -1.87942e-08, cumulative = 0.0224447
smoothSolver:  Solving for omega, Initial residual = 5.92073e-06, Final residual = 3.00353e-07, No Iterations 1
smoothSolver:  Solving for k, Initial residual = 3.4335e-07, Final residual = 2.1674e-08, No Iterations 1
ExecutionTime = 21.99 s  ClockTime = 22 s

scalarTransport execute: age
smoothSolver:  Solving for age, Initial residual = 2.67079e-05, Final residual = 2.38276e-06, No Iterations 12

Time = 1997

smoothSolver:  Solving for Ux, Initial residual = 9.72704e-06, Final residual = 8.18919e-07, No Iterations 1
smoothSolver:  Solving for Uy, Initial residual = 8.00992e-06, Final residual = 6.90789e-07, No Iterations 1
GAMG:  Solving for p, Initial residual = 1.38401e-05, Final residual = 1.13829e-06, No Iterations 2
time step continuity errors : sum local = 2.75695e-06, global = -2.44955e-08, cumulative = 0.0224446
smoothSolver:  Solving for omega, Initial residual = 4.15238e-06, Final residual = 1.81723e-07, No Iterations 1
smoothSolver:  Solving for k, Initial residual = 1.86552e-07, Final residual = 1.1126e-08, No Iterations 2
ExecutionTime = 22.01 s  ClockTime = 22 s

scalarTransport execute: age
smoothSolver:  Solving for age, Initial residual = 2.56231e-05, Final residual = 2.24132e-06, No Iterations 12

Time = 1998

smoothSolver:  Solving for Ux, Initial residual = 5.36949e-06, Final residual = 4.22493e-07, No Iterations 2
smoothSolver:  Solving for Uy, Initial residual = 4.77383e-06, Final residual = 3.01958e-07, No Iterations 2
GAMG:  Solving for p, Initial residual = 1.74825e-05, Final residual = 1.55855e-06, No Iterations 2
time step continuity errors : sum local = 3.7748e-06, global = -2.92277e-08, cumulative = 0.0224446
smoothSolver:  Solving for omega, Initial residual = 1.98755e-06, Final residual = 7.77165e-08, No Iterations 1
smoothSolver:  Solving for k, Initial residual = 2.00102e-07, Final residual = 1.00543e-08, No Iterations 2
ExecutionTime = 22.02 s  ClockTime = 22 s

scalarTransport execute: age
smoothSolver:  Solving for age, Initial residual = 2.71523e-05, Final residual = 2.64958e-06, No Iterations 11

Time = 1999

smoothSolver:  Solving for Ux, Initial residual = 3.93216e-06, Final residual = 3.57317e-07, No Iterations 2
smoothSolver:  Solving for Uy, Initial residual = 1.00744e-05, Final residual = 7.87628e-07, No Iterations 1
GAMG:  Solving for p, Initial residual = 1.62385e-05, Final residual = 1.36615e-06, No Iterations 2
time step continuity errors : sum local = 3.30881e-06, global = -3.24351e-08, cumulative = 0.0224446
smoothSolver:  Solving for omega, Initial residual = 4.44293e-06, Final residual = 1.98606e-07, No Iterations 1
smoothSolver:  Solving for k, Initial residual = 1.93979e-07, Final residual = 1.09013e-08, No Iterations 2
ExecutionTime = 22.03 s  ClockTime = 22 s

scalarTransport execute: age
smoothSolver:  Solving for age, Initial residual = 3.11954e-05, Final residual = 2.81187e-06, No Iterations 11

Time = 2000

smoothSolver:  Solving for Ux, Initial residual = 3.99874e-06, Final residual = 2.61187e-07, No Iterations 3
smoothSolver:  Solving for Uy, Initial residual = 4.4434e-06, Final residual = 3.75842e-07, No Iterations 2
GAMG:  Solving for p, Initial residual = 1.40837e-05, Final residual = 1.03351e-06, No Iterations 2
time step continuity errors : sum local = 2.50317e-06, global = -3.24072e-08, cumulative = 0.0224446
smoothSolver:  Solving for omega, Initial residual = 5.9535e-06, Final residual = 1.47476e-07, No Iterations 1
smoothSolver:  Solving for k, Initial residual = 1.53369e-07, Final residual = 1.13179e-08, No Iterations 2
ExecutionTime = 22.07 s  ClockTime = 22 s

scalarTransport execute: age
smoothSolver:  Solving for age, Initial residual = 3.44668e-05, Final residual = 3.36477e-06, No Iterations 10

End

