/*---------------------------------------------------------------------------*\
| =========                 |                                                 |
| \\      /  F ield         | OpenFOAM: The Open Source CFD Toolbox           |
|  \\    /   O peration     | Version:  v2012                                 |
|   \\  /    A nd           | Website:  www.openfoam.com                      |
|    \\/     M anipulation  |                                                 |
\*---------------------------------------------------------------------------*/
Build  : _7bdb509494-20201222 OPENFOAM=2012
Arch   : "LSB;label=32;scalar=64"
Exec   : simpleFoam
Date   : Feb 23 2023
Time   : 01:55:53
Host   : johnsDesktop
PID    : 18056
I/O    : uncollated
Case   : /home/john/of_runs/cases/0_52_3-00680_9
nProcs : 1
trapFpe: Floating point exception trapping enabled (FOAM_SIGFPE).
fileModificationChecking : Monitoring run-time modified files using timeStampMaster (fileModificationSkew 5, maxFileModificationPolls 20)
allowSystemOperations : Allowing user-supplied system call operations

// * * * * * * * * * * * * * * * * * * * * * * * * * * * * * * * * * * * * * //
Create time

Create mesh for time = 0


SIMPLE: convergence criteria
    field p	 tolerance 1e-06
    field U	 tolerance 1e-06
    field "(k|epsilon|omega|f|v2|age)"	 tolerance 1e-05

Reading field p

Reading field U

Reading/calculating face flux field phi

Selecting incompressible transport model Newtonian
Selecting turbulence model type RAS
Selecting RAS turbulence model kOmegaSST
Selecting patchDistMethod meshWave
RAS
{
    RASModel        kOmegaSST;
    turbulence      on;
    printCoeffs     on;
    alphaK1         0.85;
    alphaK2         1;
    alphaOmega1     0.5;
    alphaOmega2     0.856;
    gamma1          0.555556;
    gamma2          0.44;
    beta1           0.075;
    beta2           0.0828;
    betaStar        0.09;
    a1              0.31;
    b1              1;
    c1              10;
    F3              false;
    decayControl    false;
    kInf            0;
    omegaInf        0;
}

No MRF models present

No finite volume options present

Starting time loop

Selecting finite volume options type scalarSemiImplicitSource
    Source: unitySource
    - selecting all cells
    - selected 6057 cell(s) with volume 0.03174
Time = 1

smoothSolver:  Solving for Ux, Initial residual = 0, Final residual = 0, No Iterations 0
smoothSolver:  Solving for Uy, Initial residual = 1, Final residual = 0.0860022, No Iterations 2
GAMG:  Solving for p, Initial residual = 1, Final residual = 0.0543907, No Iterations 16
time step continuity errors : sum local = 0.00342726, global = -0.000444931, cumulative = -0.000444931
smoothSolver:  Solving for omega, Initial residual = 0.275847, Final residual = 0.0117854, No Iterations 3
smoothSolver:  Solving for k, Initial residual = 1, Final residual = 0.0786658, No Iterations 3
ExecutionTime = 0.04 s  ClockTime = 0 s

scalarTransport execute: age
smoothSolver:  Solving for age, Initial residual = 1, Final residual = 0.0898079, No Iterations 5

Time = 2

smoothSolver:  Solving for Ux, Initial residual = 0.534279, Final residual = 0.0452165, No Iterations 6
smoothSolver:  Solving for Uy, Initial residual = 0.274509, Final residual = 0.0198821, No Iterations 6
GAMG:  Solving for p, Initial residual = 0.0511578, Final residual = 0.00438902, No Iterations 4
time step continuity errors : sum local = 0.0510069, global = 0.00437526, cumulative = 0.00393033
smoothSolver:  Solving for omega, Initial residual = 0.251595, Final residual = 0.0239991, No Iterations 3
smoothSolver:  Solving for k, Initial residual = 0.602243, Final residual = 0.0561181, No Iterations 4
ExecutionTime = 0.07 s  ClockTime = 0 s

scalarTransport execute: age
smoothSolver:  Solving for age, Initial residual = 0.582421, Final residual = 0.0483401, No Iterations 6

Time = 3

smoothSolver:  Solving for Ux, Initial residual = 0.233697, Final residual = 0.0176357, No Iterations 6
smoothSolver:  Solving for Uy, Initial residual = 0.0992815, Final residual = 0.00938775, No Iterations 5
GAMG:  Solving for p, Initial residual = 0.0578934, Final residual = 0.00445775, No Iterations 7
time step continuity errors : sum local = 0.0254776, global = 0.00210467, cumulative = 0.006035
smoothSolver:  Solving for omega, Initial residual = 0.237414, Final residual = 0.0227244, No Iterations 4
smoothSolver:  Solving for k, Initial residual = 0.506593, Final residual = 0.0378762, No Iterations 5
ExecutionTime = 0.08 s  ClockTime = 0 s

scalarTransport execute: age
smoothSolver:  Solving for age, Initial residual = 0.46616, Final residual = 0.0450122, No Iterations 18

Time = 4

smoothSolver:  Solving for Ux, Initial residual = 0.112662, Final residual = 0.00905513, No Iterations 4
smoothSolver:  Solving for Uy, Initial residual = 0.0598339, Final residual = 0.00445855, No Iterations 5
GAMG:  Solving for p, Initial residual = 0.0955298, Final residual = 0.0062444, No Iterations 3
time step continuity errors : sum local = 0.0168225, global = 0.00126481, cumulative = 0.00729981
smoothSolver:  Solving for omega, Initial residual = 0.138017, Final residual = 0.0094454, No Iterations 5
smoothSolver:  Solving for k, Initial residual = 0.435927, Final residual = 0.036923, No Iterations 5
ExecutionTime = 0.09 s  ClockTime = 0 s

scalarTransport execute: age
smoothSolver:  Solving for age, Initial residual = 0.222763, Final residual = 0.0214052, No Iterations 4

Time = 5

smoothSolver:  Solving for Ux, Initial residual = 0.0778532, Final residual = 0.00730299, No Iterations 5
smoothSolver:  Solving for Uy, Initial residual = 0.0332002, Final residual = 0.0024431, No Iterations 5
GAMG:  Solving for p, Initial residual = 0.0839143, Final residual = 0.00407852, No Iterations 2
time step continuity errors : sum local = 0.00970143, global = 0.000952888, cumulative = 0.0082527
smoothSolver:  Solving for omega, Initial residual = 0.0955774, Final residual = 0.00723384, No Iterations 5
smoothSolver:  Solving for k, Initial residual = 0.341847, Final residual = 0.0313601, No Iterations 5
ExecutionTime = 0.1 s  ClockTime = 0 s

scalarTransport execute: age
smoothSolver:  Solving for age, Initial residual = 0.197554, Final residual = 0.0153578, No Iterations 4

Time = 6

smoothSolver:  Solving for Ux, Initial residual = 0.0600445, Final residual = 0.0044705, No Iterations 6
smoothSolver:  Solving for Uy, Initial residual = 0.0269121, Final residual = 0.00223578, No Iterations 5
GAMG:  Solving for p, Initial residual = 0.0672726, Final residual = 0.00458207, No Iterations 2
time step continuity errors : sum local = 0.0107613, global = 7.31718e-05, cumulative = 0.00832587
smoothSolver:  Solving for omega, Initial residual = 0.0740167, Final residual = 0.00602338, No Iterations 5
smoothSolver:  Solving for k, Initial residual = 0.273328, Final residual = 0.0266463, No Iterations 5
ExecutionTime = 0.12 s  ClockTime = 0 s

scalarTransport execute: age
smoothSolver:  Solving for age, Initial residual = 0.166921, Final residual = 0.0144145, No Iterations 4

Time = 7

smoothSolver:  Solving for Ux, Initial residual = 0.0518827, Final residual = 0.00392954, No Iterations 6
smoothSolver:  Solving for Uy, Initial residual = 0.0223665, Final residual = 0.00197962, No Iterations 5
GAMG:  Solving for p, Initial residual = 0.0539273, Final residual = 0.00404257, No Iterations 3
time step continuity errors : sum local = 0.00961957, global = -0.000331099, cumulative = 0.00799477
smoothSolver:  Solving for omega, Initial residual = 0.0557022, Final residual = 0.00485857, No Iterations 5
smoothSolver:  Solving for k, Initial residual = 0.22638, Final residual = 0.014606, No Iterations 6
ExecutionTime = 0.13 s  ClockTime = 0 s

scalarTransport execute: age
smoothSolver:  Solving for age, Initial residual = 0.138332, Final residual = 0.0104073, No Iterations 4

Time = 8

smoothSolver:  Solving for Ux, Initial residual = 0.035185, Final residual = 0.00316755, No Iterations 5
smoothSolver:  Solving for Uy, Initial residual = 0.0207747, Final residual = 0.0019637, No Iterations 5
GAMG:  Solving for p, Initial residual = 0.0421266, Final residual = 0.00374218, No Iterations 2
time step continuity errors : sum local = 0.00983773, global = -0.000553056, cumulative = 0.00744172
smoothSolver:  Solving for omega, Initial residual = 0.0451662, Final residual = 0.00406914, No Iterations 5
smoothSolver:  Solving for k, Initial residual = 0.192944, Final residual = 0.0129147, No Iterations 6
ExecutionTime = 0.14 s  ClockTime = 0 s

scalarTransport execute: age
smoothSolver:  Solving for age, Initial residual = 0.120701, Final residual = 0.0101639, No Iterations 4

Time = 9

smoothSolver:  Solving for Ux, Initial residual = 0.0293494, Final residual = 0.00287094, No Iterations 5
smoothSolver:  Solving for Uy, Initial residual = 0.0197865, Final residual = 0.00185106, No Iterations 5
GAMG:  Solving for p, Initial residual = 0.0345958, Final residual = 0.00271994, No Iterations 2
time step continuity errors : sum local = 0.00755825, global = -0.000664746, cumulative = 0.00677697
smoothSolver:  Solving for omega, Initial residual = 0.0370296, Final residual = 0.00344312, No Iterations 5
smoothSolver:  Solving for k, Initial residual = 0.167498, Final residual = 0.0115481, No Iterations 6
ExecutionTime = 0.15 s  ClockTime = 0 s

scalarTransport execute: age
smoothSolver:  Solving for age, Initial residual = 0.102006, Final residual = 0.00801489, No Iterations 4

Time = 10

smoothSolver:  Solving for Ux, Initial residual = 0.0278213, Final residual = 0.00184214, No Iterations 6
smoothSolver:  Solving for Uy, Initial residual = 0.0176525, Final residual = 0.00166072, No Iterations 5
GAMG:  Solving for p, Initial residual = 0.0288027, Final residual = 0.00131324, No Iterations 2
time step continuity errors : sum local = 0.00380255, global = -0.000527153, cumulative = 0.00624982
smoothSolver:  Solving for omega, Initial residual = 0.0309864, Final residual = 0.00295327, No Iterations 5
smoothSolver:  Solving for k, Initial residual = 0.147553, Final residual = 0.010432, No Iterations 6
ExecutionTime = 0.16 s  ClockTime = 0 s

scalarTransport execute: age
smoothSolver:  Solving for age, Initial residual = 0.08559, Final residual = 0.0072794, No Iterations 3

Time = 11

smoothSolver:  Solving for Ux, Initial residual = 0.0263583, Final residual = 0.00179785, No Iterations 6
smoothSolver:  Solving for Uy, Initial residual = 0.0168167, Final residual = 0.00167268, No Iterations 5
GAMG:  Solving for p, Initial residual = 0.0249583, Final residual = 0.00091398, No Iterations 2
time step continuity errors : sum local = 0.0026964, global = -0.000381354, cumulative = 0.00586846
smoothSolver:  Solving for omega, Initial residual = 0.0259848, Final residual = 0.00253647, No Iterations 5
smoothSolver:  Solving for k, Initial residual = 0.131754, Final residual = 0.00950071, No Iterations 6
ExecutionTime = 0.17 s  ClockTime = 0 s

scalarTransport execute: age
smoothSolver:  Solving for age, Initial residual = 0.0747132, Final residual = 0.00653145, No Iterations 3

Time = 12

smoothSolver:  Solving for Ux, Initial residual = 0.025073, Final residual = 0.00173484, No Iterations 6
smoothSolver:  Solving for Uy, Initial residual = 0.0163764, Final residual = 0.00111943, No Iterations 6
GAMG:  Solving for p, Initial residual = 0.0226714, Final residual = 0.00094431, No Iterations 2
time step continuity errors : sum local = 0.00280078, global = -0.000279414, cumulative = 0.00558905
smoothSolver:  Solving for omega, Initial residual = 0.0222388, Final residual = 0.00220169, No Iterations 5
smoothSolver:  Solving for k, Initial residual = 0.118811, Final residual = 0.00871031, No Iterations 6
ExecutionTime = 0.19 s  ClockTime = 0 s

scalarTransport execute: age
smoothSolver:  Solving for age, Initial residual = 0.0664056, Final residual = 0.00591728, No Iterations 3

Time = 13

smoothSolver:  Solving for Ux, Initial residual = 0.0241727, Final residual = 0.00169386, No Iterations 6
smoothSolver:  Solving for Uy, Initial residual = 0.0158918, Final residual = 0.00111461, No Iterations 6
GAMG:  Solving for p, Initial residual = 0.0210896, Final residual = 0.000975605, No Iterations 2
time step continuity errors : sum local = 0.00290802, global = -0.000171409, cumulative = 0.00541764
smoothSolver:  Solving for omega, Initial residual = 0.0191837, Final residual = 0.00122974, No Iterations 6
smoothSolver:  Solving for k, Initial residual = 0.107764, Final residual = 0.00801468, No Iterations 6
ExecutionTime = 0.2 s  ClockTime = 0 s

scalarTransport execute: age
smoothSolver:  Solving for age, Initial residual = 0.060274, Final residual = 0.00562694, No Iterations 3

Time = 14

smoothSolver:  Solving for Ux, Initial residual = 0.0233776, Final residual = 0.00165341, No Iterations 6
smoothSolver:  Solving for Uy, Initial residual = 0.0156309, Final residual = 0.00111473, No Iterations 6
GAMG:  Solving for p, Initial residual = 0.0199683, Final residual = 0.000960472, No Iterations 2
time step continuity errors : sum local = 0.00287017, global = -6.77863e-05, cumulative = 0.00534985
smoothSolver:  Solving for omega, Initial residual = 0.0165363, Final residual = 0.00107467, No Iterations 6
smoothSolver:  Solving for k, Initial residual = 0.0983011, Final residual = 0.00740382, No Iterations 6
ExecutionTime = 0.21 s  ClockTime = 0 s

scalarTransport execute: age
smoothSolver:  Solving for age, Initial residual = 0.0553126, Final residual = 0.00533317, No Iterations 3

Time = 15

smoothSolver:  Solving for Ux, Initial residual = 0.0226847, Final residual = 0.00161202, No Iterations 6
smoothSolver:  Solving for Uy, Initial residual = 0.0154524, Final residual = 0.00111491, No Iterations 6
GAMG:  Solving for p, Initial residual = 0.019042, Final residual = 0.000931932, No Iterations 2
time step continuity errors : sum local = 0.00278435, global = 3.79166e-05, cumulative = 0.00538777
smoothSolver:  Solving for omega, Initial residual = 0.0144007, Final residual = 0.000945507, No Iterations 6
smoothSolver:  Solving for k, Initial residual = 0.0902707, Final residual = 0.00687141, No Iterations 6
ExecutionTime = 0.22 s  ClockTime = 0 s

scalarTransport execute: age
smoothSolver:  Solving for age, Initial residual = 0.0512526, Final residual = 0.00503009, No Iterations 3

Time = 16

smoothSolver:  Solving for Ux, Initial residual = 0.0219525, Final residual = 0.00156791, No Iterations 6
smoothSolver:  Solving for Uy, Initial residual = 0.0153493, Final residual = 0.00111551, No Iterations 6
GAMG:  Solving for p, Initial residual = 0.0181925, Final residual = 0.000901616, No Iterations 2
time step continuity errors : sum local = 0.00268756, global = 0.000125492, cumulative = 0.00551326
smoothSolver:  Solving for omega, Initial residual = 0.0126743, Final residual = 0.000837577, No Iterations 6
smoothSolver:  Solving for k, Initial residual = 0.0833771, Final residual = 0.00640347, No Iterations 6
ExecutionTime = 0.23 s  ClockTime = 0 s

scalarTransport execute: age
smoothSolver:  Solving for age, Initial residual = 0.04735, Final residual = 0.00388493, No Iterations 4

Time = 17

smoothSolver:  Solving for Ux, Initial residual = 0.0212242, Final residual = 0.00152301, No Iterations 6
smoothSolver:  Solving for Uy, Initial residual = 0.0152481, Final residual = 0.00111367, No Iterations 6
GAMG:  Solving for p, Initial residual = 0.0174723, Final residual = 0.000874062, No Iterations 2
time step continuity errors : sum local = 0.00259312, global = 0.000191922, cumulative = 0.00570518
smoothSolver:  Solving for omega, Initial residual = 0.0112458, Final residual = 0.000746628, No Iterations 6
smoothSolver:  Solving for k, Initial residual = 0.0774003, Final residual = 0.00598986, No Iterations 6
ExecutionTime = 0.24 s  ClockTime = 0 s

scalarTransport execute: age
smoothSolver:  Solving for age, Initial residual = 0.0431908, Final residual = 0.00355845, No Iterations 4

Time = 18

smoothSolver:  Solving for Ux, Initial residual = 0.0205266, Final residual = 0.00147816, No Iterations 6
smoothSolver:  Solving for Uy, Initial residual = 0.0151451, Final residual = 0.00110926, No Iterations 6
GAMG:  Solving for p, Initial residual = 0.0168432, Final residual = 0.00086135, No Iterations 2
time step continuity errors : sum local = 0.00253436, global = 0.000231433, cumulative = 0.00593662
smoothSolver:  Solving for omega, Initial residual = 0.0100549, Final residual = 0.000669431, No Iterations 6
smoothSolver:  Solving for k, Initial residual = 0.0721653, Final residual = 0.00562102, No Iterations 6
ExecutionTime = 0.26 s  ClockTime = 0 s

scalarTransport execute: age
smoothSolver:  Solving for age, Initial residual = 0.0394415, Final residual = 0.00346408, No Iterations 4

Time = 19

smoothSolver:  Solving for Ux, Initial residual = 0.0198839, Final residual = 0.00143631, No Iterations 6
smoothSolver:  Solving for Uy, Initial residual = 0.015027, Final residual = 0.00110422, No Iterations 6
GAMG:  Solving for p, Initial residual = 0.0163884, Final residual = 0.000858199, No Iterations 2
time step continuity errors : sum local = 0.00249935, global = 0.000252619, cumulative = 0.00618924
smoothSolver:  Solving for omega, Initial residual = 0.00904519, Final residual = 0.000603512, No Iterations 6
smoothSolver:  Solving for k, Initial residual = 0.0675444, Final residual = 0.00529013, No Iterations 6
ExecutionTime = 0.27 s  ClockTime = 0 s

scalarTransport execute: age
smoothSolver:  Solving for age, Initial residual = 0.0357254, Final residual = 0.00321211, No Iterations 4

Time = 20

smoothSolver:  Solving for Ux, Initial residual = 0.0193172, Final residual = 0.00139908, No Iterations 6
smoothSolver:  Solving for Uy, Initial residual = 0.0148857, Final residual = 0.0010997, No Iterations 6
GAMG:  Solving for p, Initial residual = 0.0158794, Final residual = 0.00085507, No Iterations 2
time step continuity errors : sum local = 0.00246588, global = 0.000257462, cumulative = 0.0064467
smoothSolver:  Solving for omega, Initial residual = 0.00817397, Final residual = 0.000546763, No Iterations 6
smoothSolver:  Solving for k, Initial residual = 0.0634358, Final residual = 0.00499195, No Iterations 6
ExecutionTime = 0.28 s  ClockTime = 0 s

scalarTransport execute: age
smoothSolver:  Solving for age, Initial residual = 0.0323152, Final residual = 0.00302494, No Iterations 4

Time = 21

smoothSolver:  Solving for Ux, Initial residual = 0.0188262, Final residual = 0.00136841, No Iterations 6
smoothSolver:  Solving for Uy, Initial residual = 0.0147235, Final residual = 0.00109295, No Iterations 6
GAMG:  Solving for p, Initial residual = 0.0153127, Final residual = 0.000855931, No Iterations 2
time step continuity errors : sum local = 0.00244668, global = 0.000251255, cumulative = 0.00669795
smoothSolver:  Solving for omega, Initial residual = 0.00743196, Final residual = 0.000497387, No Iterations 6
smoothSolver:  Solving for k, Initial residual = 0.0597528, Final residual = 0.00472124, No Iterations 6
ExecutionTime = 0.29 s  ClockTime = 0 s

scalarTransport execute: age
smoothSolver:  Solving for age, Initial residual = 0.0288976, Final residual = 0.00237231, No Iterations 5

Time = 22

smoothSolver:  Solving for Ux, Initial residual = 0.0184259, Final residual = 0.00134266, No Iterations 6
smoothSolver:  Solving for Uy, Initial residual = 0.0145406, Final residual = 0.00108398, No Iterations 6
GAMG:  Solving for p, Initial residual = 0.0147064, Final residual = 0.000860113, No Iterations 2
time step continuity errors : sum local = 0.00244006, global = 0.000237761, cumulative = 0.00693571
smoothSolver:  Solving for omega, Initial residual = 0.00678375, Final residual = 0.000454124, No Iterations 6
smoothSolver:  Solving for k, Initial residual = 0.0564361, Final residual = 0.00447478, No Iterations 6
ExecutionTime = 0.3 s  ClockTime = 0 s

scalarTransport execute: age
smoothSolver:  Solving for age, Initial residual = 0.0261566, Final residual = 0.0022445, No Iterations 5

Time = 23

smoothSolver:  Solving for Ux, Initial residual = 0.0180521, Final residual = 0.00132088, No Iterations 6
smoothSolver:  Solving for Uy, Initial residual = 0.0143271, Final residual = 0.00107226, No Iterations 6
GAMG:  Solving for p, Initial residual = 0.0140787, Final residual = 0.000863824, No Iterations 2
time step continuity errors : sum local = 0.00243377, global = 0.000220565, cumulative = 0.00715628
smoothSolver:  Solving for omega, Initial residual = 0.00621836, Final residual = 0.000416045, No Iterations 6
smoothSolver:  Solving for k, Initial residual = 0.0534278, Final residual = 0.004249, No Iterations 6
ExecutionTime = 0.31 s  ClockTime = 0 s

scalarTransport execute: age
smoothSolver:  Solving for age, Initial residual = 0.0244618, Final residual = 0.00220603, No Iterations 5

Time = 24

smoothSolver:  Solving for Ux, Initial residual = 0.0177321, Final residual = 0.00130244, No Iterations 6
smoothSolver:  Solving for Uy, Initial residual = 0.0140951, Final residual = 0.00105853, No Iterations 6
GAMG:  Solving for p, Initial residual = 0.0134901, Final residual = 0.00086507, No Iterations 2
time step continuity errors : sum local = 0.00242224, global = 0.000202704, cumulative = 0.00735898
smoothSolver:  Solving for omega, Initial residual = 0.00571757, Final residual = 0.000382417, No Iterations 6
smoothSolver:  Solving for k, Initial residual = 0.050689, Final residual = 0.00404166, No Iterations 6
ExecutionTime = 0.32 s  ClockTime = 0 s

scalarTransport execute: age
smoothSolver:  Solving for age, Initial residual = 0.0235082, Final residual = 0.00223536, No Iterations 5

Time = 25

smoothSolver:  Solving for Ux, Initial residual = 0.0174371, Final residual = 0.00128645, No Iterations 6
smoothSolver:  Solving for Uy, Initial residual = 0.0138887, Final residual = 0.00104345, No Iterations 6
GAMG:  Solving for p, Initial residual = 0.0130497, Final residual = 0.000860097, No Iterations 2
time step continuity errors : sum local = 0.00239327, global = 0.000185537, cumulative = 0.00754452
smoothSolver:  Solving for omega, Initial residual = 0.00527837, Final residual = 0.000352817, No Iterations 6
smoothSolver:  Solving for k, Initial residual = 0.0481705, Final residual = 0.00384957, No Iterations 6
ExecutionTime = 0.34 s  ClockTime = 1 s

scalarTransport execute: age
smoothSolver:  Solving for age, Initial residual = 0.0227498, Final residual = 0.00182765, No Iterations 6

Time = 26

smoothSolver:  Solving for Ux, Initial residual = 0.0171723, Final residual = 0.00127433, No Iterations 6
smoothSolver:  Solving for Uy, Initial residual = 0.0136919, Final residual = 0.00102685, No Iterations 6
GAMG:  Solving for p, Initial residual = 0.0129466, Final residual = 0.000854772, No Iterations 2
time step continuity errors : sum local = 0.0023656, global = 0.000171203, cumulative = 0.00771572
smoothSolver:  Solving for omega, Initial residual = 0.00489258, Final residual = 0.000326733, No Iterations 6
smoothSolver:  Solving for k, Initial residual = 0.0458551, Final residual = 0.00367166, No Iterations 6
ExecutionTime = 0.35 s  ClockTime = 1 s

scalarTransport execute: age
smoothSolver:  Solving for age, Initial residual = 0.0218084, Final residual = 0.0018746, No Iterations 6

Time = 27

smoothSolver:  Solving for Ux, Initial residual = 0.0169503, Final residual = 0.00126518, No Iterations 6
smoothSolver:  Solving for Uy, Initial residual = 0.0135028, Final residual = 0.00100927, No Iterations 6
GAMG:  Solving for p, Initial residual = 0.0131531, Final residual = 0.000853548, No Iterations 2
time step continuity errors : sum local = 0.00235102, global = 0.0001625, cumulative = 0.00787822
smoothSolver:  Solving for omega, Initial residual = 0.00455289, Final residual = 0.000303364, No Iterations 6
smoothSolver:  Solving for k, Initial residual = 0.0437149, Final residual = 0.00350607, No Iterations 6
ExecutionTime = 0.36 s  ClockTime = 1 s

scalarTransport execute: age
smoothSolver:  Solving for age, Initial residual = 0.0207271, Final residual = 0.00191878, No Iterations 6

Time = 28

smoothSolver:  Solving for Ux, Initial residual = 0.0167833, Final residual = 0.00125899, No Iterations 6
smoothSolver:  Solving for Uy, Initial residual = 0.0133075, Final residual = 0.000990465, No Iterations 6
GAMG:  Solving for p, Initial residual = 0.0134285, Final residual = 0.000873345, No Iterations 2
time step continuity errors : sum local = 0.00239427, global = 0.00015767, cumulative = 0.00803589
smoothSolver:  Solving for omega, Initial residual = 0.00424869, Final residual = 0.000282253, No Iterations 6
smoothSolver:  Solving for k, Initial residual = 0.0417185, Final residual = 0.00335073, No Iterations 6
ExecutionTime = 0.37 s  ClockTime = 1 s

scalarTransport execute: age
smoothSolver:  Solving for age, Initial residual = 0.0197872, Final residual = 0.00172656, No Iterations 7

Time = 29

smoothSolver:  Solving for Ux, Initial residual = 0.0166628, Final residual = 0.00125397, No Iterations 6
smoothSolver:  Solving for Uy, Initial residual = 0.0130797, Final residual = 0.000970743, No Iterations 6
GAMG:  Solving for p, Initial residual = 0.0135239, Final residual = 0.000920417, No Iterations 2
time step continuity errors : sum local = 0.00250479, global = 0.000155645, cumulative = 0.00819154
smoothSolver:  Solving for omega, Initial residual = 0.00397619, Final residual = 0.000263083, No Iterations 6
smoothSolver:  Solving for k, Initial residual = 0.0398596, Final residual = 0.00320505, No Iterations 6
ExecutionTime = 0.38 s  ClockTime = 1 s

scalarTransport execute: age
smoothSolver:  Solving for age, Initial residual = 0.0188631, Final residual = 0.00185403, No Iterations 7

Time = 30

smoothSolver:  Solving for Ux, Initial residual = 0.0165645, Final residual = 0.00124869, No Iterations 6
smoothSolver:  Solving for Uy, Initial residual = 0.012807, Final residual = 0.000949021, No Iterations 6
GAMG:  Solving for p, Initial residual = 0.0133938, Final residual = 0.00095923, No Iterations 2
time step continuity errors : sum local = 0.00259577, global = 0.000154516, cumulative = 0.00834605
smoothSolver:  Solving for omega, Initial residual = 0.00372972, Final residual = 0.000245636, No Iterations 6
smoothSolver:  Solving for k, Initial residual = 0.0381203, Final residual = 0.00306804, No Iterations 6
ExecutionTime = 0.4 s  ClockTime = 1 s

scalarTransport execute: age
smoothSolver:  Solving for age, Initial residual = 0.0180856, Final residual = 0.00164076, No Iterations 8

Time = 31

smoothSolver:  Solving for Ux, Initial residual = 0.0164661, Final residual = 0.0012424, No Iterations 6
smoothSolver:  Solving for Uy, Initial residual = 0.0124884, Final residual = 0.000925418, No Iterations 6
GAMG:  Solving for p, Initial residual = 0.0129751, Final residual = 0.000985066, No Iterations 2
time step continuity errors : sum local = 0.00265286, global = 0.000151665, cumulative = 0.00849772
smoothSolver:  Solving for omega, Initial residual = 0.00350415, Final residual = 0.000229685, No Iterations 6
smoothSolver:  Solving for k, Initial residual = 0.0364886, Final residual = 0.0029391, No Iterations 6
ExecutionTime = 0.41 s  ClockTime = 1 s

scalarTransport execute: age
smoothSolver:  Solving for age, Initial residual = 0.0175336, Final residual = 0.00171748, No Iterations 8

Time = 32

smoothSolver:  Solving for Ux, Initial residual = 0.0163663, Final residual = 0.00123413, No Iterations 6
smoothSolver:  Solving for Uy, Initial residual = 0.0121354, Final residual = 0.000900656, No Iterations 6
GAMG:  Solving for p, Initial residual = 0.0123769, Final residual = 0.00100285, No Iterations 2
time step continuity errors : sum local = 0.00268884, global = 0.000144747, cumulative = 0.00864247
smoothSolver:  Solving for omega, Initial residual = 0.00330091, Final residual = 0.000215043, No Iterations 6
smoothSolver:  Solving for k, Initial residual = 0.0349566, Final residual = 0.00281795, No Iterations 6
ExecutionTime = 0.42 s  ClockTime = 1 s

scalarTransport execute: age
smoothSolver:  Solving for age, Initial residual = 0.0171558, Final residual = 0.00154039, No Iterations 9

Time = 33

smoothSolver:  Solving for Ux, Initial residual = 0.0162303, Final residual = 0.00122411, No Iterations 6
smoothSolver:  Solving for Uy, Initial residual = 0.0117707, Final residual = 0.000876281, No Iterations 6
GAMG:  Solving for p, Initial residual = 0.0117584, Final residual = 0.00102361, No Iterations 2
time step continuity errors : sum local = 0.00273203, global = 0.000133863, cumulative = 0.00877633
smoothSolver:  Solving for omega, Initial residual = 0.00311408, Final residual = 0.000201568, No Iterations 6
smoothSolver:  Solving for k, Initial residual = 0.033518, Final residual = 0.00270444, No Iterations 6
ExecutionTime = 0.43 s  ClockTime = 1 s

scalarTransport execute: age
smoothSolver:  Solving for age, Initial residual = 0.0170907, Final residual = 0.00163374, No Iterations 9

Time = 34

smoothSolver:  Solving for Ux, Initial residual = 0.0160865, Final residual = 0.00121229, No Iterations 6
smoothSolver:  Solving for Uy, Initial residual = 0.0114122, Final residual = 0.000854042, No Iterations 6
GAMG:  Solving for p, Initial residual = 0.0113404, Final residual = 0.00104697, No Iterations 2
time step continuity errors : sum local = 0.00278598, global = 0.000122271, cumulative = 0.0088986
smoothSolver:  Solving for omega, Initial residual = 0.00294101, Final residual = 0.000292723, No Iterations 5
smoothSolver:  Solving for k, Initial residual = 0.0321959, Final residual = 0.00260035, No Iterations 6
ExecutionTime = 0.44 s  ClockTime = 1 s

scalarTransport execute: age
smoothSolver:  Solving for age, Initial residual = 0.0173334, Final residual = 0.00172639, No Iterations 9

Time = 35

smoothSolver:  Solving for Ux, Initial residual = 0.0159472, Final residual = 0.00120189, No Iterations 6
smoothSolver:  Solving for Uy, Initial residual = 0.0111146, Final residual = 0.000834124, No Iterations 6
GAMG:  Solving for p, Initial residual = 0.0109176, Final residual = 0.000910029, No Iterations 3
time step continuity errors : sum local = 0.00240408, global = 6.96567e-05, cumulative = 0.00896826
smoothSolver:  Solving for omega, Initial residual = 0.00282382, Final residual = 0.000277286, No Iterations 5
smoothSolver:  Solving for k, Initial residual = 0.0309673, Final residual = 0.00250417, No Iterations 6
ExecutionTime = 0.46 s  ClockTime = 1 s

scalarTransport execute: age
smoothSolver:  Solving for age, Initial residual = 0.0177946, Final residual = 0.00159922, No Iterations 10

Time = 36

smoothSolver:  Solving for Ux, Initial residual = 0.0160533, Final residual = 0.00120436, No Iterations 6
smoothSolver:  Solving for Uy, Initial residual = 0.0109814, Final residual = 0.000821705, No Iterations 6
GAMG:  Solving for p, Initial residual = 0.0107893, Final residual = 0.000855146, No Iterations 2
time step continuity errors : sum local = 0.0022345, global = 7.89534e-05, cumulative = 0.00904721
smoothSolver:  Solving for omega, Initial residual = 0.00266035, Final residual = 0.000261796, No Iterations 5
smoothSolver:  Solving for k, Initial residual = 0.0298244, Final residual = 0.00241361, No Iterations 6
ExecutionTime = 0.47 s  ClockTime = 1 s

scalarTransport execute: age
smoothSolver:  Solving for age, Initial residual = 0.0184462, Final residual = 0.00174435, No Iterations 10

Time = 37

smoothSolver:  Solving for Ux, Initial residual = 0.0157711, Final residual = 0.00118265, No Iterations 6
smoothSolver:  Solving for Uy, Initial residual = 0.0106043, Final residual = 0.00080134, No Iterations 6
GAMG:  Solving for p, Initial residual = 0.0106504, Final residual = 0.00066552, No Iterations 3
time step continuity errors : sum local = 0.00173478, global = 5.6741e-05, cumulative = 0.00910395
smoothSolver:  Solving for omega, Initial residual = 0.00253691, Final residual = 0.000247427, No Iterations 5
smoothSolver:  Solving for k, Initial residual = 0.0287441, Final residual = 0.00232874, No Iterations 6
ExecutionTime = 0.48 s  ClockTime = 1 s

scalarTransport execute: age
smoothSolver:  Solving for age, Initial residual = 0.0188659, Final residual = 0.00165413, No Iterations 11

Time = 38

smoothSolver:  Solving for Ux, Initial residual = 0.0155889, Final residual = 0.00115887, No Iterations 6
smoothSolver:  Solving for Uy, Initial residual = 0.0103424, Final residual = 0.000783649, No Iterations 6
GAMG:  Solving for p, Initial residual = 0.010071, Final residual = 0.00096713, No Iterations 2
time step continuity errors : sum local = 0.00251952, global = 6.51395e-05, cumulative = 0.00916909
smoothSolver:  Solving for omega, Initial residual = 0.00241146, Final residual = 0.000233928, No Iterations 5
smoothSolver:  Solving for k, Initial residual = 0.027743, Final residual = 0.00224865, No Iterations 6
ExecutionTime = 0.49 s  ClockTime = 1 s

scalarTransport execute: age
smoothSolver:  Solving for age, Initial residual = 0.0195041, Final residual = 0.00182807, No Iterations 11

Time = 39

smoothSolver:  Solving for Ux, Initial residual = 0.0153459, Final residual = 0.00113749, No Iterations 6
smoothSolver:  Solving for Uy, Initial residual = 0.0100768, Final residual = 0.00076757, No Iterations 6
GAMG:  Solving for p, Initial residual = 0.0102229, Final residual = 0.00083648, No Iterations 3
time step continuity errors : sum local = 0.0021711, global = 5.9253e-05, cumulative = 0.00922834
smoothSolver:  Solving for omega, Initial residual = 0.00230276, Final residual = 0.000221174, No Iterations 5
smoothSolver:  Solving for k, Initial residual = 0.0267979, Final residual = 0.00217323, No Iterations 6
ExecutionTime = 0.5 s  ClockTime = 1 s

scalarTransport execute: age
smoothSolver:  Solving for age, Initial residual = 0.0203388, Final residual = 0.00199153, No Iterations 11

Time = 40

smoothSolver:  Solving for Ux, Initial residual = 0.0152375, Final residual = 0.0011179, No Iterations 6
smoothSolver:  Solving for Uy, Initial residual = 0.00993916, Final residual = 0.000758574, No Iterations 6
GAMG:  Solving for p, Initial residual = 0.00993783, Final residual = 0.000651397, No Iterations 3
time step continuity errors : sum local = 0.00168818, global = 5.21483e-05, cumulative = 0.00928049
smoothSolver:  Solving for omega, Initial residual = 0.00220134, Final residual = 0.000209007, No Iterations 5
smoothSolver:  Solving for k, Initial residual = 0.0259245, Final residual = 0.00210218, No Iterations 6
ExecutionTime = 0.52 s  ClockTime = 1 s

scalarTransport execute: age
smoothSolver:  Solving for age, Initial residual = 0.0211691, Final residual = 0.00188579, No Iterations 12

Time = 41

smoothSolver:  Solving for Ux, Initial residual = 0.0150938, Final residual = 0.00110219, No Iterations 6
smoothSolver:  Solving for Uy, Initial residual = 0.00984778, Final residual = 0.000752635, No Iterations 6
GAMG:  Solving for p, Initial residual = 0.0098649, Final residual = 0.000619978, No Iterations 3
time step continuity errors : sum local = 0.0015982, global = 5.10048e-05, cumulative = 0.0093315
smoothSolver:  Solving for omega, Initial residual = 0.00210328, Final residual = 0.00019859, No Iterations 5
smoothSolver:  Solving for k, Initial residual = 0.0250992, Final residual = 0.00203524, No Iterations 6
ExecutionTime = 0.53 s  ClockTime = 1 s

scalarTransport execute: age
smoothSolver:  Solving for age, Initial residual = 0.0219998, Final residual = 0.00201377, No Iterations 12

Time = 42

smoothSolver:  Solving for Ux, Initial residual = 0.0148868, Final residual = 0.0010832, No Iterations 6
smoothSolver:  Solving for Uy, Initial residual = 0.00970767, Final residual = 0.000744428, No Iterations 6
GAMG:  Solving for p, Initial residual = 0.00969875, Final residual = 0.000590745, No Iterations 3
time step continuity errors : sum local = 0.00151794, global = 5.02331e-05, cumulative = 0.00938173
smoothSolver:  Solving for omega, Initial residual = 0.00200181, Final residual = 0.000188165, No Iterations 5
smoothSolver:  Solving for k, Initial residual = 0.0243353, Final residual = 0.00197227, No Iterations 6
ExecutionTime = 0.53 s  ClockTime = 1 s

scalarTransport execute: age
smoothSolver:  Solving for age, Initial residual = 0.02245, Final residual = 0.00209667, No Iterations 12

Time = 43

smoothSolver:  Solving for Ux, Initial residual = 0.014668, Final residual = 0.00106202, No Iterations 6
smoothSolver:  Solving for Uy, Initial residual = 0.00958613, Final residual = 0.000737851, No Iterations 6
GAMG:  Solving for p, Initial residual = 0.00952648, Final residual = 0.000618039, No Iterations 3
time step continuity errors : sum local = 0.00158144, global = 4.90667e-05, cumulative = 0.0094308
smoothSolver:  Solving for omega, Initial residual = 0.00192402, Final residual = 0.000178918, No Iterations 5
smoothSolver:  Solving for k, Initial residual = 0.0236131, Final residual = 0.00191285, No Iterations 6
ExecutionTime = 0.54 s  ClockTime = 1 s

scalarTransport execute: age
smoothSolver:  Solving for age, Initial residual = 0.0223724, Final residual = 0.00204582, No Iterations 12

Time = 44

smoothSolver:  Solving for Ux, Initial residual = 0.014426, Final residual = 0.00103938, No Iterations 6
smoothSolver:  Solving for Uy, Initial residual = 0.00947306, Final residual = 0.000731914, No Iterations 6
GAMG:  Solving for p, Initial residual = 0.00931153, Final residual = 0.000612049, No Iterations 3
time step continuity errors : sum local = 0.00155827, global = 4.83679e-05, cumulative = 0.00947917
smoothSolver:  Solving for omega, Initial residual = 0.00184137, Final residual = 0.000169891, No Iterations 5
smoothSolver:  Solving for k, Initial residual = 0.0229424, Final residual = 0.00185693, No Iterations 6
ExecutionTime = 0.57 s  ClockTime = 1 s

scalarTransport execute: age
smoothSolver:  Solving for age, Initial residual = 0.0218541, Final residual = 0.0021562, No Iterations 11

Time = 45

smoothSolver:  Solving for Ux, Initial residual = 0.0141793, Final residual = 0.00101666, No Iterations 6
smoothSolver:  Solving for Uy, Initial residual = 0.00937957, Final residual = 0.000727403, No Iterations 6
GAMG:  Solving for p, Initial residual = 0.00907813, Final residual = 0.000627451, No Iterations 3
time step continuity errors : sum local = 0.00158832, global = 5.02881e-05, cumulative = 0.00952945
smoothSolver:  Solving for omega, Initial residual = 0.00177527, Final residual = 0.000161904, No Iterations 5
smoothSolver:  Solving for k, Initial residual = 0.0223098, Final residual = 0.00180422, No Iterations 6
ExecutionTime = 0.58 s  ClockTime = 1 s

scalarTransport execute: age
smoothSolver:  Solving for age, Initial residual = 0.0210958, Final residual = 0.00195446, No Iterations 11

Time = 46

smoothSolver:  Solving for Ux, Initial residual = 0.0139169, Final residual = 0.000993592, No Iterations 6
smoothSolver:  Solving for Uy, Initial residual = 0.00930094, Final residual = 0.000723995, No Iterations 6
GAMG:  Solving for p, Initial residual = 0.00883959, Final residual = 0.000624977, No Iterations 3
time step continuity errors : sum local = 0.0015723, global = 5.05432e-05, cumulative = 0.00958
smoothSolver:  Solving for omega, Initial residual = 0.00170272, Final residual = 0.000154205, No Iterations 5
smoothSolver:  Solving for k, Initial residual = 0.0217182, Final residual = 0.00175439, No Iterations 6
ExecutionTime = 0.59 s  ClockTime = 1 s

scalarTransport execute: age
smoothSolver:  Solving for age, Initial residual = 0.0201731, Final residual = 0.00173605, No Iterations 11

Time = 47

smoothSolver:  Solving for Ux, Initial residual = 0.013646, Final residual = 0.000970301, No Iterations 6
smoothSolver:  Solving for Uy, Initial residual = 0.00921792, Final residual = 0.000720138, No Iterations 6
GAMG:  Solving for p, Initial residual = 0.00861664, Final residual = 0.000626002, No Iterations 3
time step continuity errors : sum local = 0.00156481, global = 5.19675e-05, cumulative = 0.00963196
smoothSolver:  Solving for omega, Initial residual = 0.00164236, Final residual = 0.000147303, No Iterations 5
smoothSolver:  Solving for k, Initial residual = 0.0211577, Final residual = 0.00170716, No Iterations 6
ExecutionTime = 0.6 s  ClockTime = 1 s

scalarTransport execute: age
smoothSolver:  Solving for age, Initial residual = 0.0193024, Final residual = 0.00181613, No Iterations 10

Time = 48

smoothSolver:  Solving for Ux, Initial residual = 0.0133565, Final residual = 0.000945874, No Iterations 6
smoothSolver:  Solving for Uy, Initial residual = 0.00913582, Final residual = 0.000716282, No Iterations 6
GAMG:  Solving for p, Initial residual = 0.00841536, Final residual = 0.000635094, No Iterations 3
time step continuity errors : sum local = 0.00157627, global = 5.33358e-05, cumulative = 0.0096853
smoothSolver:  Solving for omega, Initial residual = 0.00158014, Final residual = 0.00014071, No Iterations 5
smoothSolver:  Solving for k, Initial residual = 0.0206336, Final residual = 0.00166222, No Iterations 6
ExecutionTime = 0.61 s  ClockTime = 1 s

scalarTransport execute: age
smoothSolver:  Solving for age, Initial residual = 0.0185495, Final residual = 0.00168699, No Iterations 10

Time = 49

smoothSolver:  Solving for Ux, Initial residual = 0.0130528, Final residual = 0.000920571, No Iterations 6
smoothSolver:  Solving for Uy, Initial residual = 0.0090467, Final residual = 0.000711834, No Iterations 6
GAMG:  Solving for p, Initial residual = 0.00822991, Final residual = 0.000639889, No Iterations 3
time step continuity errors : sum local = 0.00157641, global = 5.58864e-05, cumulative = 0.00974119
smoothSolver:  Solving for omega, Initial residual = 0.0015266, Final residual = 0.000134744, No Iterations 5
smoothSolver:  Solving for k, Initial residual = 0.0201335, Final residual = 0.00161938, No Iterations 6
ExecutionTime = 0.63 s  ClockTime = 1 s

scalarTransport execute: age
smoothSolver:  Solving for age, Initial residual = 0.0179824, Final residual = 0.00155588, No Iterations 10

Time = 50

smoothSolver:  Solving for Ux, Initial residual = 0.0127428, Final residual = 0.000894806, No Iterations 6
smoothSolver:  Solving for Uy, Initial residual = 0.00896598, Final residual = 0.000707199, No Iterations 6
GAMG:  Solving for p, Initial residual = 0.00807181, Final residual = 0.00065215, No Iterations 3
time step continuity errors : sum local = 0.00159469, global = 5.79571e-05, cumulative = 0.00979914
smoothSolver:  Solving for omega, Initial residual = 0.00147164, Final residual = 0.000128924, No Iterations 5
smoothSolver:  Solving for k, Initial residual = 0.0196606, Final residual = 0.00157842, No Iterations 6
ExecutionTime = 0.64 s  ClockTime = 1 s

scalarTransport execute: age
smoothSolver:  Solving for age, Initial residual = 0.0173343, Final residual = 0.00168359, No Iterations 9

Time = 51

smoothSolver:  Solving for Ux, Initial residual = 0.0124398, Final residual = 0.000868922, No Iterations 6
smoothSolver:  Solving for Uy, Initial residual = 0.00888055, Final residual = 0.000700733, No Iterations 6
GAMG:  Solving for p, Initial residual = 0.00792209, Final residual = 0.000649659, No Iterations 3
time step continuity errors : sum local = 0.00157676, global = 6.08682e-05, cumulative = 0.00986001
smoothSolver:  Solving for omega, Initial residual = 0.00142115, Final residual = 0.000123233, No Iterations 5
smoothSolver:  Solving for k, Initial residual = 0.0192073, Final residual = 0.00153917, No Iterations 6
ExecutionTime = 0.65 s  ClockTime = 1 s

scalarTransport execute: age
smoothSolver:  Solving for age, Initial residual = 0.0166619, Final residual = 0.00160728, No Iterations 9

Time = 52

smoothSolver:  Solving for Ux, Initial residual = 0.0121355, Final residual = 0.00084281, No Iterations 6
smoothSolver:  Solving for Uy, Initial residual = 0.00878442, Final residual = 0.000693124, No Iterations 6
GAMG:  Solving for p, Initial residual = 0.00780153, Final residual = 0.000660851, No Iterations 3
time step continuity errors : sum local = 0.00159203, global = 6.28854e-05, cumulative = 0.0099229
smoothSolver:  Solving for omega, Initial residual = 0.00135314, Final residual = 0.000116935, No Iterations 5
smoothSolver:  Solving for k, Initial residual = 0.0187701, Final residual = 0.00150159, No Iterations 6
ExecutionTime = 0.66 s  ClockTime = 1 s

scalarTransport execute: age
smoothSolver:  Solving for age, Initial residual = 0.0159088, Final residual = 0.00153664, No Iterations 9

Time = 53

smoothSolver:  Solving for Ux, Initial residual = 0.0118343, Final residual = 0.000816955, No Iterations 6
smoothSolver:  Solving for Uy, Initial residual = 0.00867577, Final residual = 0.000682801, No Iterations 6
GAMG:  Solving for p, Initial residual = 0.00768252, Final residual = 0.000658664, No Iterations 3
time step continuity errors : sum local = 0.00157465, global = 6.52953e-05, cumulative = 0.00998819
smoothSolver:  Solving for omega, Initial residual = 0.00130223, Final residual = 0.000111576, No Iterations 5
smoothSolver:  Solving for k, Initial residual = 0.018348, Final residual = 0.00146522, No Iterations 6
ExecutionTime = 0.68 s  ClockTime = 1 s

scalarTransport execute: age
smoothSolver:  Solving for age, Initial residual = 0.0152137, Final residual = 0.00145638, No Iterations 9

Time = 54

smoothSolver:  Solving for Ux, Initial residual = 0.0115439, Final residual = 0.000791428, No Iterations 6
smoothSolver:  Solving for Uy, Initial residual = 0.00854556, Final residual = 0.000670688, No Iterations 6
GAMG:  Solving for p, Initial residual = 0.00760103, Final residual = 0.000669747, No Iterations 3
time step continuity errors : sum local = 0.00158897, global = 6.67422e-05, cumulative = 0.0100549
smoothSolver:  Solving for omega, Initial residual = 0.00126378, Final residual = 0.000107225, No Iterations 5
smoothSolver:  Solving for k, Initial residual = 0.0179396, Final residual = 0.00142943, No Iterations 6
ExecutionTime = 0.69 s  ClockTime = 1 s

scalarTransport execute: age
smoothSolver:  Solving for age, Initial residual = 0.0145002, Final residual = 0.0013715, No Iterations 9

Time = 55

smoothSolver:  Solving for Ux, Initial residual = 0.0112725, Final residual = 0.000766651, No Iterations 6
smoothSolver:  Solving for Uy, Initial residual = 0.00837883, Final residual = 0.000655367, No Iterations 6
GAMG:  Solving for p, Initial residual = 0.00750129, Final residual = 0.000664745, No Iterations 3
time step continuity errors : sum local = 0.00156523, global = 6.83357e-05, cumulative = 0.0101233
smoothSolver:  Solving for omega, Initial residual = 0.00123378, Final residual = 0.00010326, No Iterations 5
smoothSolver:  Solving for k, Initial residual = 0.017537, Final residual = 0.00139404, No Iterations 6
ExecutionTime = 0.7 s  ClockTime = 1 s

scalarTransport execute: age
smoothSolver:  Solving for age, Initial residual = 0.013885, Final residual = 0.00128994, No Iterations 9

Time = 56

smoothSolver:  Solving for Ux, Initial residual = 0.0110035, Final residual = 0.000742232, No Iterations 6
smoothSolver:  Solving for Uy, Initial residual = 0.00820453, Final residual = 0.000638507, No Iterations 6
GAMG:  Solving for p, Initial residual = 0.00747181, Final residual = 0.000669482, No Iterations 3
time step continuity errors : sum local = 0.00156496, global = 6.86142e-05, cumulative = 0.0101919
smoothSolver:  Solving for omega, Initial residual = 0.00120024, Final residual = 9.94927e-05, No Iterations 5
smoothSolver:  Solving for k, Initial residual = 0.0171377, Final residual = 0.00135882, No Iterations 6
ExecutionTime = 0.71 s  ClockTime = 1 s

scalarTransport execute: age
smoothSolver:  Solving for age, Initial residual = 0.0131895, Final residual = 0.001222, No Iterations 9

Time = 57

smoothSolver:  Solving for Ux, Initial residual = 0.0107333, Final residual = 0.000718088, No Iterations 6
smoothSolver:  Solving for Uy, Initial residual = 0.0079999, Final residual = 0.000619054, No Iterations 6
GAMG:  Solving for p, Initial residual = 0.00741682, Final residual = 0.000658979, No Iterations 3
time step continuity errors : sum local = 0.00152958, global = 6.89799e-05, cumulative = 0.0102609
smoothSolver:  Solving for omega, Initial residual = 0.00117353, Final residual = 9.60895e-05, No Iterations 5
smoothSolver:  Solving for k, Initial residual = 0.0167355, Final residual = 0.00132349, No Iterations 6
ExecutionTime = 0.72 s  ClockTime = 1 s

scalarTransport execute: age
smoothSolver:  Solving for age, Initial residual = 0.0125582, Final residual = 0.00116504, No Iterations 9

Time = 58

smoothSolver:  Solving for Ux, Initial residual = 0.0104579, Final residual = 0.000694314, No Iterations 6
smoothSolver:  Solving for Uy, Initial residual = 0.00777862, Final residual = 0.00059848, No Iterations 6
GAMG:  Solving for p, Initial residual = 0.00741934, Final residual = 0.000651219, No Iterations 3
time step continuity errors : sum local = 0.00150104, global = 6.88068e-05, cumulative = 0.0103297
smoothSolver:  Solving for omega, Initial residual = 0.00114695, Final residual = 9.28366e-05, No Iterations 5
smoothSolver:  Solving for k, Initial residual = 0.0163304, Final residual = 0.00128778, No Iterations 6
ExecutionTime = 0.74 s  ClockTime = 1 s

scalarTransport execute: age
smoothSolver:  Solving for age, Initial residual = 0.0119799, Final residual = 0.00110995, No Iterations 9

Time = 59

smoothSolver:  Solving for Ux, Initial residual = 0.0101861, Final residual = 0.000671208, No Iterations 6
smoothSolver:  Solving for Uy, Initial residual = 0.00753063, Final residual = 0.000575312, No Iterations 6
GAMG:  Solving for p, Initial residual = 0.00739682, Final residual = 0.000633597, No Iterations 3
time step continuity errors : sum local = 0.00144983, global = 6.87469e-05, cumulative = 0.0103984
smoothSolver:  Solving for omega, Initial residual = 0.00112322, Final residual = 8.97843e-05, No Iterations 5
smoothSolver:  Solving for k, Initial residual = 0.0159147, Final residual = 0.00125142, No Iterations 6
ExecutionTime = 0.75 s  ClockTime = 1 s

scalarTransport execute: age
smoothSolver:  Solving for age, Initial residual = 0.0116092, Final residual = 0.00106054, No Iterations 9

Time = 60

smoothSolver:  Solving for Ux, Initial residual = 0.00991238, Final residual = 0.000648576, No Iterations 6
smoothSolver:  Solving for Uy, Initial residual = 0.00726622, Final residual = 0.00055126, No Iterations 6
GAMG:  Solving for p, Initial residual = 0.00740666, Final residual = 0.00061665, No Iterations 3
time step continuity errors : sum local = 0.00140072, global = 6.75599e-05, cumulative = 0.010466
smoothSolver:  Solving for omega, Initial residual = 0.00112092, Final residual = 8.71095e-05, No Iterations 5
smoothSolver:  Solving for k, Initial residual = 0.0154945, Final residual = 0.00121451, No Iterations 6
ExecutionTime = 0.76 s  ClockTime = 1 s

scalarTransport execute: age
smoothSolver:  Solving for age, Initial residual = 0.0110067, Final residual = 0.00100899, No Iterations 9

Time = 61

smoothSolver:  Solving for Ux, Initial residual = 0.00963413, Final residual = 0.000626669, No Iterations 6
smoothSolver:  Solving for Uy, Initial residual = 0.00698026, Final residual = 0.000525081, No Iterations 6
GAMG:  Solving for p, Initial residual = 0.00740826, Final residual = 0.000595808, No Iterations 3
time step continuity errors : sum local = 0.00134346, global = 6.65006e-05, cumulative = 0.0105325
smoothSolver:  Solving for omega, Initial residual = 0.00109632, Final residual = 8.40438e-05, No Iterations 5
smoothSolver:  Solving for k, Initial residual = 0.0150583, Final residual = 0.00117659, No Iterations 6
ExecutionTime = 0.77 s  ClockTime = 1 s

scalarTransport execute: age
smoothSolver:  Solving for age, Initial residual = 0.0104477, Final residual = 0.000958524, No Iterations 9

Time = 62

smoothSolver:  Solving for Ux, Initial residual = 0.00936641, Final residual = 0.000932902, No Iterations 5
smoothSolver:  Solving for Uy, Initial residual = 0.00668946, Final residual = 0.000498368, No Iterations 6
GAMG:  Solving for p, Initial residual = 0.00737677, Final residual = 0.000572042, No Iterations 3
time step continuity errors : sum local = 0.00128064, global = 6.44071e-05, cumulative = 0.0105969
smoothSolver:  Solving for omega, Initial residual = 0.00107179, Final residual = 8.09128e-05, No Iterations 5
smoothSolver:  Solving for k, Initial residual = 0.0146107, Final residual = 0.00113785, No Iterations 6
ExecutionTime = 0.78 s  ClockTime = 1 s

scalarTransport execute: age
smoothSolver:  Solving for age, Initial residual = 0.00993104, Final residual = 0.000910847, No Iterations 9

Time = 63

smoothSolver:  Solving for Ux, Initial residual = 0.00919628, Final residual = 0.000912314, No Iterations 5
smoothSolver:  Solving for Uy, Initial residual = 0.00635474, Final residual = 0.000468204, No Iterations 6
GAMG:  Solving for p, Initial residual = 0.00746486, Final residual = 0.000555368, No Iterations 3
time step continuity errors : sum local = 0.00123375, global = 6.29155e-05, cumulative = 0.0106598
smoothSolver:  Solving for omega, Initial residual = 0.00104744, Final residual = 7.79284e-05, No Iterations 5
smoothSolver:  Solving for k, Initial residual = 0.0141469, Final residual = 0.00109826, No Iterations 6
ExecutionTime = 0.8 s  ClockTime = 1 s

scalarTransport execute: age
smoothSolver:  Solving for age, Initial residual = 0.00953757, Final residual = 0.000865667, No Iterations 9

Time = 64

smoothSolver:  Solving for Ux, Initial residual = 0.00898153, Final residual = 0.000887433, No Iterations 5
smoothSolver:  Solving for Uy, Initial residual = 0.00604073, Final residual = 0.000439709, No Iterations 6
GAMG:  Solving for p, Initial residual = 0.00762173, Final residual = 0.000535362, No Iterations 3
time step continuity errors : sum local = 0.00117976, global = 6.18295e-05, cumulative = 0.0107216
smoothSolver:  Solving for omega, Initial residual = 0.00102271, Final residual = 7.51788e-05, No Iterations 5
smoothSolver:  Solving for k, Initial residual = 0.013672, Final residual = 0.00105813, No Iterations 6
ExecutionTime = 0.81 s  ClockTime = 1 s

scalarTransport execute: age
smoothSolver:  Solving for age, Initial residual = 0.0091856, Final residual = 0.000826992, No Iterations 9

Time = 65

smoothSolver:  Solving for Ux, Initial residual = 0.00875566, Final residual = 0.00086139, No Iterations 5
smoothSolver:  Solving for Uy, Initial residual = 0.00573591, Final residual = 0.000411559, No Iterations 6
GAMG:  Solving for p, Initial residual = 0.00785795, Final residual = 0.000519994, No Iterations 3
time step continuity errors : sum local = 0.00113854, global = 6.11805e-05, cumulative = 0.0107828
smoothSolver:  Solving for omega, Initial residual = 0.00100229, Final residual = 7.24923e-05, No Iterations 5
smoothSolver:  Solving for k, Initial residual = 0.0131965, Final residual = 0.00101797, No Iterations 6
ExecutionTime = 0.82 s  ClockTime = 1 s

scalarTransport execute: age
smoothSolver:  Solving for age, Initial residual = 0.00886488, Final residual = 0.000801915, No Iterations 9

Time = 66

smoothSolver:  Solving for Ux, Initial residual = 0.00852493, Final residual = 0.000836026, No Iterations 5
smoothSolver:  Solving for Uy, Initial residual = 0.00544677, Final residual = 0.000384611, No Iterations 6
GAMG:  Solving for p, Initial residual = 0.00807566, Final residual = 0.000501183, No Iterations 3
time step continuity errors : sum local = 0.00109187, global = 6.06911e-05, cumulative = 0.0108435
smoothSolver:  Solving for omega, Initial residual = 0.000977078, Final residual = 6.98249e-05, No Iterations 5
smoothSolver:  Solving for k, Initial residual = 0.0127107, Final residual = 0.000977808, No Iterations 6
ExecutionTime = 0.83 s  ClockTime = 1 s

scalarTransport execute: age
smoothSolver:  Solving for age, Initial residual = 0.00860502, Final residual = 0.000796153, No Iterations 9

Time = 67

smoothSolver:  Solving for Ux, Initial residual = 0.00831924, Final residual = 0.000813501, No Iterations 5
smoothSolver:  Solving for Uy, Initial residual = 0.00517403, Final residual = 0.00035908, No Iterations 6
GAMG:  Solving for p, Initial residual = 0.00826846, Final residual = 0.000489235, No Iterations 3
time step continuity errors : sum local = 0.00106117, global = 6.02471e-05, cumulative = 0.0109037
smoothSolver:  Solving for omega, Initial residual = 0.000955939, Final residual = 6.73949e-05, No Iterations 5
smoothSolver:  Solving for k, Initial residual = 0.0122252, Final residual = 0.000938019, No Iterations 6
ExecutionTime = 0.84 s  ClockTime = 1 s

scalarTransport execute: age
smoothSolver:  Solving for age, Initial residual = 0.00842121, Final residual = 0.000807353, No Iterations 9

Time = 68

smoothSolver:  Solving for Ux, Initial residual = 0.00812714, Final residual = 0.00079284, No Iterations 5
smoothSolver:  Solving for Uy, Initial residual = 0.00493306, Final residual = 0.000336282, No Iterations 6
GAMG:  Solving for p, Initial residual = 0.0083565, Final residual = 0.000481699, No Iterations 3
time step continuity errors : sum local = 0.00104195, global = 5.99452e-05, cumulative = 0.0109637
smoothSolver:  Solving for omega, Initial residual = 0.000936585, Final residual = 6.5046e-05, No Iterations 5
smoothSolver:  Solving for k, Initial residual = 0.0117427, Final residual = 0.00089889, No Iterations 6
ExecutionTime = 0.86 s  ClockTime = 1 s

scalarTransport execute: age
smoothSolver:  Solving for age, Initial residual = 0.00829243, Final residual = 0.000733182, No Iterations 10

Time = 69

smoothSolver:  Solving for Ux, Initial residual = 0.00793489, Final residual = 0.000774089, No Iterations 5
smoothSolver:  Solving for Uy, Initial residual = 0.00471047, Final residual = 0.000318509, No Iterations 6
GAMG:  Solving for p, Initial residual = 0.00835339, Final residual = 0.000478868, No Iterations 3
time step continuity errors : sum local = 0.00103512, global = 5.9172e-05, cumulative = 0.0110229
smoothSolver:  Solving for omega, Initial residual = 0.000918771, Final residual = 6.26451e-05, No Iterations 5
smoothSolver:  Solving for k, Initial residual = 0.0112697, Final residual = 0.000860801, No Iterations 6
ExecutionTime = 0.87 s  ClockTime = 1 s

scalarTransport execute: age
smoothSolver:  Solving for age, Initial residual = 0.0081723, Final residual = 0.000766024, No Iterations 10

Time = 70

smoothSolver:  Solving for Ux, Initial residual = 0.00776638, Final residual = 0.000757755, No Iterations 5
smoothSolver:  Solving for Uy, Initial residual = 0.00450641, Final residual = 0.000303624, No Iterations 6
GAMG:  Solving for p, Initial residual = 0.00827937, Final residual = 0.000475063, No Iterations 3
time step continuity errors : sum local = 0.00102694, global = 5.86236e-05, cumulative = 0.0110815
smoothSolver:  Solving for omega, Initial residual = 0.000900977, Final residual = 6.01838e-05, No Iterations 5
smoothSolver:  Solving for k, Initial residual = 0.0108121, Final residual = 0.000824133, No Iterations 6
ExecutionTime = 0.88 s  ClockTime = 1 s

scalarTransport execute: age
smoothSolver:  Solving for age, Initial residual = 0.00809457, Final residual = 0.000713922, No Iterations 11

Time = 71

smoothSolver:  Solving for Ux, Initial residual = 0.00760241, Final residual = 0.000742805, No Iterations 5
smoothSolver:  Solving for Uy, Initial residual = 0.00432978, Final residual = 0.000289888, No Iterations 6
GAMG:  Solving for p, Initial residual = 0.00817786, Final residual = 0.000465809, No Iterations 3
time step continuity errors : sum local = 0.00100751, global = 5.76775e-05, cumulative = 0.0111392
smoothSolver:  Solving for omega, Initial residual = 0.000879055, Final residual = 5.76418e-05, No Iterations 5
smoothSolver:  Solving for k, Initial residual = 0.0103747, Final residual = 0.000789134, No Iterations 6
ExecutionTime = 0.89 s  ClockTime = 1 s

scalarTransport execute: age
smoothSolver:  Solving for age, Initial residual = 0.00806388, Final residual = 0.000757058, No Iterations 11

Time = 72

smoothSolver:  Solving for Ux, Initial residual = 0.00743592, Final residual = 0.00072981, No Iterations 5
smoothSolver:  Solving for Uy, Initial residual = 0.00418095, Final residual = 0.000276975, No Iterations 6
GAMG:  Solving for p, Initial residual = 0.00807769, Final residual = 0.000451467, No Iterations 3
time step continuity errors : sum local = 0.000977139, global = 5.61713e-05, cumulative = 0.0111953
smoothSolver:  Solving for omega, Initial residual = 0.000854997, Final residual = 5.50197e-05, No Iterations 5
smoothSolver:  Solving for k, Initial residual = 0.00996259, Final residual = 0.000755975, No Iterations 6
ExecutionTime = 0.9 s  ClockTime = 1 s

scalarTransport execute: age
smoothSolver:  Solving for age, Initial residual = 0.00810386, Final residual = 0.00080316, No Iterations 11

Time = 73

smoothSolver:  Solving for Ux, Initial residual = 0.00728331, Final residual = 0.000717783, No Iterations 5
smoothSolver:  Solving for Uy, Initial residual = 0.00403949, Final residual = 0.000264892, No Iterations 6
GAMG:  Solving for p, Initial residual = 0.00799562, Final residual = 0.000433692, No Iterations 3
time step continuity errors : sum local = 0.000939207, global = 5.42847e-05, cumulative = 0.0112496
smoothSolver:  Solving for omega, Initial residual = 0.000829139, Final residual = 5.23312e-05, No Iterations 5
smoothSolver:  Solving for k, Initial residual = 0.00958299, Final residual = 0.000724605, No Iterations 6
ExecutionTime = 0.92 s  ClockTime = 1 s

scalarTransport execute: age
smoothSolver:  Solving for age, Initial residual = 0.00814522, Final residual = 0.000750771, No Iterations 12

Time = 74

smoothSolver:  Solving for Ux, Initial residual = 0.00713475, Final residual = 0.00070584, No Iterations 5
smoothSolver:  Solving for Uy, Initial residual = 0.00390349, Final residual = 0.000253953, No Iterations 6
GAMG:  Solving for p, Initial residual = 0.00786175, Final residual = 0.000414369, No Iterations 3
time step continuity errors : sum local = 0.000897779, global = 5.15793e-05, cumulative = 0.0113012
smoothSolver:  Solving for omega, Initial residual = 0.000802607, Final residual = 4.96706e-05, No Iterations 5
smoothSolver:  Solving for k, Initial residual = 0.00923117, Final residual = 0.000694841, No Iterations 6
ExecutionTime = 0.93 s  ClockTime = 1 s

scalarTransport execute: age
smoothSolver:  Solving for age, Initial residual = 0.0082061, Final residual = 0.000787398, No Iterations 12

Time = 75

smoothSolver:  Solving for Ux, Initial residual = 0.00699683, Final residual = 0.000695296, No Iterations 5
smoothSolver:  Solving for Uy, Initial residual = 0.00377418, Final residual = 0.000375496, No Iterations 5
GAMG:  Solving for p, Initial residual = 0.00770394, Final residual = 0.00040151, No Iterations 3
time step continuity errors : sum local = 0.000869978, global = 4.99906e-05, cumulative = 0.0113512
smoothSolver:  Solving for omega, Initial residual = 0.000773648, Final residual = 7.72456e-05, No Iterations 4
smoothSolver:  Solving for k, Initial residual = 0.00890273, Final residual = 0.000666656, No Iterations 6
ExecutionTime = 0.94 s  ClockTime = 1 s

scalarTransport execute: age
smoothSolver:  Solving for age, Initial residual = 0.00822573, Final residual = 0.000816746, No Iterations 12

Time = 76

smoothSolver:  Solving for Ux, Initial residual = 0.00682716, Final residual = 0.000680797, No Iterations 5
smoothSolver:  Solving for Uy, Initial residual = 0.00371079, Final residual = 0.000369319, No Iterations 5
GAMG:  Solving for p, Initial residual = 0.00755429, Final residual = 0.00075211, No Iterations 2
time step continuity errors : sum local = 0.0016301, global = 9.66863e-05, cumulative = 0.0114479
smoothSolver:  Solving for omega, Initial residual = 0.000757009, Final residual = 7.41474e-05, No Iterations 4
smoothSolver:  Solving for k, Initial residual = 0.00858506, Final residual = 0.000639301, No Iterations 6
ExecutionTime = 0.95 s  ClockTime = 1 s

scalarTransport execute: age
smoothSolver:  Solving for age, Initial residual = 0.00816838, Final residual = 0.00073141, No Iterations 13

Time = 77

smoothSolver:  Solving for Ux, Initial residual = 0.00665877, Final residual = 0.000433565, No Iterations 6
smoothSolver:  Solving for Uy, Initial residual = 0.003633, Final residual = 0.000361017, No Iterations 5
GAMG:  Solving for p, Initial residual = 0.00762275, Final residual = 0.000519303, No Iterations 3
time step continuity errors : sum local = 0.00112861, global = 2.08547e-05, cumulative = 0.0114687
smoothSolver:  Solving for omega, Initial residual = 0.000742609, Final residual = 7.04937e-05, No Iterations 4
smoothSolver:  Solving for k, Initial residual = 0.00828074, Final residual = 0.000613323, No Iterations 6
ExecutionTime = 0.96 s  ClockTime = 1 s

scalarTransport execute: age
smoothSolver:  Solving for age, Initial residual = 0.00832997, Final residual = 0.000746753, No Iterations 13

Time = 78

smoothSolver:  Solving for Ux, Initial residual = 0.00653448, Final residual = 0.000647895, No Iterations 5
smoothSolver:  Solving for Uy, Initial residual = 0.00361517, Final residual = 0.000357441, No Iterations 5
GAMG:  Solving for p, Initial residual = 0.00727239, Final residual = 0.00071721, No Iterations 2
time step continuity errors : sum local = 0.00155328, global = 9.52294e-05, cumulative = 0.011564
smoothSolver:  Solving for omega, Initial residual = 0.000719185, Final residual = 6.751e-05, No Iterations 4
smoothSolver:  Solving for k, Initial residual = 0.00799109, Final residual = 0.00058748, No Iterations 6
ExecutionTime = 0.98 s  ClockTime = 1 s

scalarTransport execute: age
smoothSolver:  Solving for age, Initial residual = 0.00817506, Final residual = 0.00073844, No Iterations 13

Time = 79

smoothSolver:  Solving for Ux, Initial residual = 0.00634294, Final residual = 0.000412574, No Iterations 6
smoothSolver:  Solving for Uy, Initial residual = 0.00346891, Final residual = 0.000342262, No Iterations 5
GAMG:  Solving for p, Initial residual = 0.00710089, Final residual = 0.000475283, No Iterations 3
time step continuity errors : sum local = 0.00103463, global = 6.20988e-06, cumulative = 0.0115702
smoothSolver:  Solving for omega, Initial residual = 0.000693655, Final residual = 6.49643e-05, No Iterations 4
smoothSolver:  Solving for k, Initial residual = 0.0076975, Final residual = 0.000562969, No Iterations 6
ExecutionTime = 0.99 s  ClockTime = 1 s

scalarTransport execute: age
smoothSolver:  Solving for age, Initial residual = 0.00822354, Final residual = 0.000723926, No Iterations 13

Time = 80

smoothSolver:  Solving for Ux, Initial residual = 0.00619258, Final residual = 0.000616948, No Iterations 5
smoothSolver:  Solving for Uy, Initial residual = 0.00348969, Final residual = 0.00034193, No Iterations 5
GAMG:  Solving for p, Initial residual = 0.00692454, Final residual = 0.000650975, No Iterations 2
time step continuity errors : sum local = 0.00140863, global = 8.77115e-05, cumulative = 0.0116579
smoothSolver:  Solving for omega, Initial residual = 0.0006793, Final residual = 6.27122e-05, No Iterations 4
smoothSolver:  Solving for k, Initial residual = 0.00742936, Final residual = 0.000538576, No Iterations 6
ExecutionTime = 1 s  ClockTime = 1 s

scalarTransport execute: age
smoothSolver:  Solving for age, Initial residual = 0.00795253, Final residual = 0.000793609, No Iterations 12

Time = 81

smoothSolver:  Solving for Ux, Initial residual = 0.00600581, Final residual = 0.000391104, No Iterations 6
smoothSolver:  Solving for Uy, Initial residual = 0.00333199, Final residual = 0.000325269, No Iterations 5
GAMG:  Solving for p, Initial residual = 0.00685775, Final residual = 0.000439981, No Iterations 3
time step continuity errors : sum local = 0.000955173, global = 8.37755e-07, cumulative = 0.0116587
smoothSolver:  Solving for omega, Initial residual = 0.00066337, Final residual = 6.07267e-05, No Iterations 4
smoothSolver:  Solving for k, Initial residual = 0.00714946, Final residual = 0.000515505, No Iterations 6
ExecutionTime = 1.01 s  ClockTime = 1 s

scalarTransport execute: age
smoothSolver:  Solving for age, Initial residual = 0.00792971, Final residual = 0.000760749, No Iterations 12

Time = 82

smoothSolver:  Solving for Ux, Initial residual = 0.00581864, Final residual = 0.000575852, No Iterations 5
smoothSolver:  Solving for Uy, Initial residual = 0.00339763, Final residual = 0.000330279, No Iterations 5
GAMG:  Solving for p, Initial residual = 0.00677858, Final residual = 0.000596909, No Iterations 2
time step continuity errors : sum local = 0.00128965, global = 9.17707e-05, cumulative = 0.0117505
smoothSolver:  Solving for omega, Initial residual = 0.000655112, Final residual = 5.85146e-05, No Iterations 4
smoothSolver:  Solving for k, Initial residual = 0.00690057, Final residual = 0.000492563, No Iterations 6
ExecutionTime = 1.02 s  ClockTime = 1 s

scalarTransport execute: age
smoothSolver:  Solving for age, Initial residual = 0.00759624, Final residual = 0.000718797, No Iterations 12

Time = 83

smoothSolver:  Solving for Ux, Initial residual = 0.00560331, Final residual = 0.000557609, No Iterations 5
smoothSolver:  Solving for Uy, Initial residual = 0.00324403, Final residual = 0.000313463, No Iterations 5
GAMG:  Solving for p, Initial residual = 0.0066491, Final residual = 0.00041573, No Iterations 3
time step continuity errors : sum local = 0.000899402, global = -3.01019e-06, cumulative = 0.0117475
smoothSolver:  Solving for omega, Initial residual = 0.000641426, Final residual = 5.64928e-05, No Iterations 4
smoothSolver:  Solving for k, Initial residual = 0.00663747, Final residual = 0.000470947, No Iterations 6
ExecutionTime = 1.04 s  ClockTime = 1 s

scalarTransport execute: age
smoothSolver:  Solving for age, Initial residual = 0.0074784, Final residual = 0.000673662, No Iterations 12

Time = 84

smoothSolver:  Solving for Ux, Initial residual = 0.00543092, Final residual = 0.000533217, No Iterations 5
smoothSolver:  Solving for Uy, Initial residual = 0.00330002, Final residual = 0.000319166, No Iterations 5
GAMG:  Solving for p, Initial residual = 0.00649022, Final residual = 0.000546822, No Iterations 2
time step continuity errors : sum local = 0.00117674, global = 9.20387e-05, cumulative = 0.0118395
smoothSolver:  Solving for omega, Initial residual = 0.000634916, Final residual = 5.42681e-05, No Iterations 4
smoothSolver:  Solving for k, Initial residual = 0.00640859, Final residual = 0.000449168, No Iterations 6
ExecutionTime = 1.05 s  ClockTime = 1 s

scalarTransport execute: age
smoothSolver:  Solving for age, Initial residual = 0.00712937, Final residual = 0.00062447, No Iterations 12

Time = 85

smoothSolver:  Solving for Ux, Initial residual = 0.00518384, Final residual = 0.000509678, No Iterations 5
smoothSolver:  Solving for Uy, Initial residual = 0.00317519, Final residual = 0.000303993, No Iterations 5
GAMG:  Solving for p, Initial residual = 0.00633905, Final residual = 0.000388731, No Iterations 3
time step continuity errors : sum local = 0.000837084, global = -4.02129e-06, cumulative = 0.0118355
smoothSolver:  Solving for omega, Initial residual = 0.000620102, Final residual = 5.20613e-05, No Iterations 4
smoothSolver:  Solving for k, Initial residual = 0.00615436, Final residual = 0.000428474, No Iterations 6
ExecutionTime = 1.06 s  ClockTime = 1 s

scalarTransport execute: age
smoothSolver:  Solving for age, Initial residual = 0.00696659, Final residual = 0.000668923, No Iterations 11

Time = 86

smoothSolver:  Solving for Ux, Initial residual = 0.00499171, Final residual = 0.000483154, No Iterations 5
smoothSolver:  Solving for Uy, Initial residual = 0.00324866, Final residual = 0.000311998, No Iterations 5
GAMG:  Solving for p, Initial residual = 0.00616258, Final residual = 0.000503995, No Iterations 2
time step continuity errors : sum local = 0.00107874, global = 9.23552e-05, cumulative = 0.0119279
smoothSolver:  Solving for omega, Initial residual = 0.000612061, Final residual = 4.96936e-05, No Iterations 4
smoothSolver:  Solving for k, Initial residual = 0.00593923, Final residual = 0.000407762, No Iterations 6
ExecutionTime = 1.07 s  ClockTime = 1 s

scalarTransport execute: age
smoothSolver:  Solving for age, Initial residual = 0.00662942, Final residual = 0.00062446, No Iterations 11

Time = 87

smoothSolver:  Solving for Ux, Initial residual = 0.00472714, Final residual = 0.00045749, No Iterations 5
smoothSolver:  Solving for Uy, Initial residual = 0.00312925, Final residual = 0.000296878, No Iterations 5
GAMG:  Solving for p, Initial residual = 0.00599354, Final residual = 0.000590847, No Iterations 2
time step continuity errors : sum local = 0.00126366, global = 0.000187979, cumulative = 0.0121158
smoothSolver:  Solving for omega, Initial residual = 0.000589306, Final residual = 4.74579e-05, No Iterations 4
smoothSolver:  Solving for k, Initial residual = 0.00570323, Final residual = 0.000387805, No Iterations 6
ExecutionTime = 1.08 s  ClockTime = 1 s

scalarTransport execute: age
smoothSolver:  Solving for age, Initial residual = 0.00631973, Final residual = 0.000581346, No Iterations 11

Time = 88

smoothSolver:  Solving for Ux, Initial residual = 0.004465, Final residual = 0.000427157, No Iterations 5
smoothSolver:  Solving for Uy, Initial residual = 0.00312763, Final residual = 0.000293299, No Iterations 5
GAMG:  Solving for p, Initial residual = 0.00581454, Final residual = 0.000319646, No Iterations 3
time step continuity errors : sum local = 0.000682459, global = -2.59686e-06, cumulative = 0.0121132
smoothSolver:  Solving for omega, Initial residual = 0.000578243, Final residual = 4.49323e-05, No Iterations 4
smoothSolver:  Solving for k, Initial residual = 0.00546715, Final residual = 0.000368494, No Iterations 6
ExecutionTime = 1.1 s  ClockTime = 1 s

scalarTransport execute: age
smoothSolver:  Solving for age, Initial residual = 0.00621578, Final residual = 0.000554305, No Iterations 11

Time = 89

smoothSolver:  Solving for Ux, Initial residual = 0.00432881, Final residual = 0.000406449, No Iterations 5
smoothSolver:  Solving for Uy, Initial residual = 0.00318024, Final residual = 0.000303074, No Iterations 5
GAMG:  Solving for p, Initial residual = 0.00566672, Final residual = 0.000458857, No Iterations 2
time step continuity errors : sum local = 0.000970327, global = 8.40832e-05, cumulative = 0.0121973
smoothSolver:  Solving for omega, Initial residual = 0.000576456, Final residual = 4.28654e-05, No Iterations 4
smoothSolver:  Solving for k, Initial residual = 0.00527713, Final residual = 0.00034957, No Iterations 6
ExecutionTime = 1.11 s  ClockTime = 1 s

scalarTransport execute: age
smoothSolver:  Solving for age, Initial residual = 0.00596763, Final residual = 0.000530667, No Iterations 11

Time = 90

smoothSolver:  Solving for Ux, Initial residual = 0.00401498, Final residual = 0.000379061, No Iterations 5
smoothSolver:  Solving for Uy, Initial residual = 0.00307409, Final residual = 0.000290082, No Iterations 5
GAMG:  Solving for p, Initial residual = 0.00544491, Final residual = 0.000521929, No Iterations 2
time step continuity errors : sum local = 0.00110238, global = 0.000177702, cumulative = 0.012375
smoothSolver:  Solving for omega, Initial residual = 0.000544107, Final residual = 4.08443e-05, No Iterations 4
smoothSolver:  Solving for k, Initial residual = 0.00505312, Final residual = 0.00033138, No Iterations 6
ExecutionTime = 1.12 s  ClockTime = 1 s

scalarTransport execute: age
smoothSolver:  Solving for age, Initial residual = 0.00570525, Final residual = 0.000510372, No Iterations 11

Time = 91

smoothSolver:  Solving for Ux, Initial residual = 0.00376806, Final residual = 0.000350369, No Iterations 5
smoothSolver:  Solving for Uy, Initial residual = 0.00304488, Final residual = 0.000282661, No Iterations 5
GAMG:  Solving for p, Initial residual = 0.00527857, Final residual = 0.000312903, No Iterations 3
time step continuity errors : sum local = 0.000659732, global = -3.66201e-06, cumulative = 0.0123714
smoothSolver:  Solving for omega, Initial residual = 0.000533545, Final residual = 3.8583e-05, No Iterations 4
smoothSolver:  Solving for k, Initial residual = 0.00482241, Final residual = 0.000313859, No Iterations 6
ExecutionTime = 1.13 s  ClockTime = 1 s

scalarTransport execute: age
smoothSolver:  Solving for age, Initial residual = 0.00555063, Final residual = 0.000495048, No Iterations 11

Time = 92

smoothSolver:  Solving for Ux, Initial residual = 0.00363247, Final residual = 0.000328287, No Iterations 5
smoothSolver:  Solving for Uy, Initial residual = 0.00308307, Final residual = 0.000288343, No Iterations 5
GAMG:  Solving for p, Initial residual = 0.00516257, Final residual = 0.000443483, No Iterations 2
time step continuity errors : sum local = 0.000925509, global = 7.49622e-05, cumulative = 0.0124463
smoothSolver:  Solving for omega, Initial residual = 0.000533147, Final residual = 3.71816e-05, No Iterations 4
smoothSolver:  Solving for k, Initial residual = 0.00464125, Final residual = 0.000461348, No Iterations 5
ExecutionTime = 1.14 s  ClockTime = 1 s

scalarTransport execute: age
smoothSolver:  Solving for age, Initial residual = 0.00533442, Final residual = 0.000484273, No Iterations 11

Time = 93

smoothSolver:  Solving for Ux, Initial residual = 0.00334822, Final residual = 0.000303445, No Iterations 5
smoothSolver:  Solving for Uy, Initial residual = 0.00296683, Final residual = 0.000275282, No Iterations 5
GAMG:  Solving for p, Initial residual = 0.00500685, Final residual = 0.000497464, No Iterations 2
time step continuity errors : sum local = 0.0010383, global = 0.000166957, cumulative = 0.0126133
smoothSolver:  Solving for omega, Initial residual = 0.000500776, Final residual = 3.56104e-05, No Iterations 4
smoothSolver:  Solving for k, Initial residual = 0.00442957, Final residual = 0.000437421, No Iterations 5
ExecutionTime = 1.15 s  ClockTime = 1 s

scalarTransport execute: age
smoothSolver:  Solving for age, Initial residual = 0.00511151, Final residual = 0.000475384, No Iterations 11

Time = 94

smoothSolver:  Solving for Ux, Initial residual = 0.00313664, Final residual = 0.000277774, No Iterations 5
smoothSolver:  Solving for Uy, Initial residual = 0.00291674, Final residual = 0.000264853, No Iterations 5
GAMG:  Solving for p, Initial residual = 0.00488716, Final residual = 0.000319394, No Iterations 3
time step continuity errors : sum local = 0.000665902, global = -6.43389e-06, cumulative = 0.0126068
smoothSolver:  Solving for omega, Initial residual = 0.000492462, Final residual = 3.38506e-05, No Iterations 4
smoothSolver:  Solving for k, Initial residual = 0.0042091, Final residual = 0.000414533, No Iterations 5
ExecutionTime = 1.16 s  ClockTime = 1 s

scalarTransport execute: age
smoothSolver:  Solving for age, Initial residual = 0.00496259, Final residual = 0.000468434, No Iterations 11

Time = 95

smoothSolver:  Solving for Ux, Initial residual = 0.00303591, Final residual = 0.000257207, No Iterations 5
smoothSolver:  Solving for Uy, Initial residual = 0.00291587, Final residual = 0.000265313, No Iterations 5
GAMG:  Solving for p, Initial residual = 0.00479099, Final residual = 0.000418746, No Iterations 2
time step continuity errors : sum local = 0.000864278, global = 5.93119e-05, cumulative = 0.0126662
smoothSolver:  Solving for omega, Initial residual = 0.000486073, Final residual = 3.29325e-05, No Iterations 4
smoothSolver:  Solving for k, Initial residual = 0.00403864, Final residual = 0.000392825, No Iterations 5
ExecutionTime = 1.18 s  ClockTime = 1 s

scalarTransport execute: age
smoothSolver:  Solving for age, Initial residual = 0.00477685, Final residual = 0.000463388, No Iterations 11

Time = 96

[...]

Time = 596

smoothSolver:  Solving for Ux, Initial residual = 8.14221e-07, Final residual = 5.3322e-08, No Iterations 5
smoothSolver:  Solving for Uy, Initial residual = 5.55554e-07, Final residual = 4.60728e-08, No Iterations 5
GAMG:  Solving for p, Initial residual = 1.70396e-06, Final residual = 1.06828e-07, No Iterations 3
time step continuity errors : sum local = 2.52152e-07, global = 9.99703e-09, cumulative = 0.0166231
smoothSolver:  Solving for omega, Initial residual = 8.79059e-08, Final residual = 9.07524e-09, No Iterations 3
smoothSolver:  Solving for k, Initial residual = 1.24894e-07, Final residual = 8.57698e-09, No Iterations 5
ExecutionTime = 7.03 s  ClockTime = 7 s

scalarTransport execute: age
smoothSolver:  Solving for age, Initial residual = 0.000339167, Final residual = 3.29054e-05, No Iterations 14

Time = 597

smoothSolver:  Solving for Ux, Initial residual = 7.75402e-07, Final residual = 4.91958e-08, No Iterations 5
smoothSolver:  Solving for Uy, Initial residual = 5.38877e-07, Final residual = 4.53696e-08, No Iterations 5
GAMG:  Solving for p, Initial residual = 1.62022e-06, Final residual = 1.4644e-07, No Iterations 2
time step continuity errors : sum local = 3.45648e-07, global = 1.93947e-08, cumulative = 0.0166231
smoothSolver:  Solving for omega, Initial residual = 8.77517e-08, Final residual = 9.07725e-09, No Iterations 3
smoothSolver:  Solving for k, Initial residual = 1.2451e-07, Final residual = 8.45967e-09, No Iterations 5
ExecutionTime = 7.04 s  ClockTime = 7 s

scalarTransport execute: age
smoothSolver:  Solving for age, Initial residual = 0.000338568, Final residual = 3.2849e-05, No Iterations 14

Time = 598

smoothSolver:  Solving for Ux, Initial residual = 7.74052e-07, Final residual = 5.02763e-08, No Iterations 5
smoothSolver:  Solving for Uy, Initial residual = 5.32592e-07, Final residual = 4.42083e-08, No Iterations 5
GAMG:  Solving for p, Initial residual = 1.59522e-06, Final residual = 1.06413e-07, No Iterations 3
time step continuity errors : sum local = 2.51172e-07, global = 6.92449e-09, cumulative = 0.0166231
smoothSolver:  Solving for omega, Initial residual = 8.71947e-08, Final residual = 8.70371e-09, No Iterations 3
smoothSolver:  Solving for k, Initial residual = 1.19781e-07, Final residual = 8.23634e-09, No Iterations 5
ExecutionTime = 7.05 s  ClockTime = 7 s

scalarTransport execute: age
smoothSolver:  Solving for age, Initial residual = 0.000337969, Final residual = 3.27887e-05, No Iterations 14

Time = 599

smoothSolver:  Solving for Ux, Initial residual = 7.32629e-07, Final residual = 4.65955e-08, No Iterations 5
smoothSolver:  Solving for Uy, Initial residual = 5.29049e-07, Final residual = 4.44485e-08, No Iterations 5
GAMG:  Solving for p, Initial residual = 1.55843e-06, Final residual = 1.41031e-07, No Iterations 2
time step continuity errors : sum local = 3.32882e-07, global = 1.60625e-08, cumulative = 0.0166232
smoothSolver:  Solving for omega, Initial residual = 8.44582e-08, Final residual = 8.71308e-09, No Iterations 3
smoothSolver:  Solving for k, Initial residual = 1.19545e-07, Final residual = 8.12752e-09, No Iterations 5
ExecutionTime = 7.06 s  ClockTime = 7 s

scalarTransport execute: age
smoothSolver:  Solving for age, Initial residual = 0.000337375, Final residual = 3.27323e-05, No Iterations 14

Time = 600

smoothSolver:  Solving for Ux, Initial residual = 7.32802e-07, Final residual = 4.76386e-08, No Iterations 5
smoothSolver:  Solving for Uy, Initial residual = 5.18737e-07, Final residual = 4.29895e-08, No Iterations 5
GAMG:  Solving for p, Initial residual = 1.53804e-06, Final residual = 9.51724e-08, No Iterations 3
time step continuity errors : sum local = 2.2464e-07, global = 9.1129e-09, cumulative = 0.0166232
smoothSolver:  Solving for omega, Initial residual = 8.18221e-08, Final residual = 8.36883e-09, No Iterations 3
smoothSolver:  Solving for k, Initial residual = 1.15181e-07, Final residual = 7.92095e-09, No Iterations 5
ExecutionTime = 7.07 s  ClockTime = 7 s

scalarTransport execute: age
smoothSolver:  Solving for age, Initial residual = 0.000336773, Final residual = 3.26722e-05, No Iterations 14

Time = 601

smoothSolver:  Solving for Ux, Initial residual = 7.00564e-07, Final residual = 4.44137e-08, No Iterations 5
smoothSolver:  Solving for Uy, Initial residual = 5.07834e-07, Final residual = 4.28437e-08, No Iterations 5
GAMG:  Solving for p, Initial residual = 1.47901e-06, Final residual = 1.35908e-07, No Iterations 2
time step continuity errors : sum local = 3.2079e-07, global = 1.61291e-08, cumulative = 0.0166232
smoothSolver:  Solving for omega, Initial residual = 7.95172e-08, Final residual = 8.36081e-09, No Iterations 3
smoothSolver:  Solving for k, Initial residual = 1.14597e-07, Final residual = 7.81398e-09, No Iterations 5
ExecutionTime = 7.09 s  ClockTime = 7 s

scalarTransport execute: age
smoothSolver:  Solving for age, Initial residual = 0.000336185, Final residual = 3.26161e-05, No Iterations 14

Time = 602

smoothSolver:  Solving for Ux, Initial residual = 7.01426e-07, Final residual = 4.55665e-08, No Iterations 5
smoothSolver:  Solving for Uy, Initial residual = 4.95145e-07, Final residual = 4.11639e-08, No Iterations 5
GAMG:  Solving for p, Initial residual = 1.46669e-06, Final residual = 9.26362e-08, No Iterations 3
time step continuity errors : sum local = 2.18654e-07, global = 8.31439e-09, cumulative = 0.0166232
smoothSolver:  Solving for omega, Initial residual = 7.79212e-08, Final residual = 8.03673e-09, No Iterations 3
smoothSolver:  Solving for k, Initial residual = 1.10622e-07, Final residual = 7.61425e-09, No Iterations 5
ExecutionTime = 7.1 s  ClockTime = 7 s

scalarTransport execute: age
smoothSolver:  Solving for age, Initial residual = 0.000335587, Final residual = 3.25563e-05, No Iterations 14

Time = 603

smoothSolver:  Solving for Ux, Initial residual = 6.70118e-07, Final residual = 4.24526e-08, No Iterations 5
smoothSolver:  Solving for Uy, Initial residual = 4.82877e-07, Final residual = 4.07743e-08, No Iterations 5
GAMG:  Solving for p, Initial residual = 1.4125e-06, Final residual = 1.2925e-07, No Iterations 2
time step continuity errors : sum local = 3.05077e-07, global = 1.50616e-08, cumulative = 0.0166232
smoothSolver:  Solving for omega, Initial residual = 7.5934e-08, Final residual = 8.02728e-09, No Iterations 3
smoothSolver:  Solving for k, Initial residual = 1.1009e-07, Final residual = 7.51145e-09, No Iterations 5
ExecutionTime = 7.11 s  ClockTime = 7 s

scalarTransport execute: age
smoothSolver:  Solving for age, Initial residual = 0.000335002, Final residual = 3.25006e-05, No Iterations 14

Time = 604

smoothSolver:  Solving for Ux, Initial residual = 6.69793e-07, Final residual = 4.35048e-08, No Iterations 5
smoothSolver:  Solving for Uy, Initial residual = 4.72894e-07, Final residual = 3.93645e-08, No Iterations 5
GAMG:  Solving for p, Initial residual = 1.40075e-06, Final residual = 8.82173e-08, No Iterations 3
time step continuity errors : sum local = 2.08224e-07, global = 7.78498e-09, cumulative = 0.0166232
smoothSolver:  Solving for omega, Initial residual = 7.45371e-08, Final residual = 7.72292e-09, No Iterations 3
smoothSolver:  Solving for k, Initial residual = 1.06401e-07, Final residual = 7.31953e-09, No Iterations 5
ExecutionTime = 7.12 s  ClockTime = 7 s

scalarTransport execute: age
smoothSolver:  Solving for age, Initial residual = 0.000334408, Final residual = 3.24414e-05, No Iterations 14

Time = 605

smoothSolver:  Solving for Ux, Initial residual = 6.39861e-07, Final residual = 4.05754e-08, No Iterations 5
smoothSolver:  Solving for Uy, Initial residual = 4.63118e-07, Final residual = 3.91458e-08, No Iterations 5
GAMG:  Solving for p, Initial residual = 1.35127e-06, Final residual = 1.23202e-07, No Iterations 2
time step continuity errors : sum local = 2.90801e-07, global = 1.42406e-08, cumulative = 0.0166232
smoothSolver:  Solving for omega, Initial residual = 7.275e-08, Final residual = 7.71773e-09, No Iterations 3
smoothSolver:  Solving for k, Initial residual = 1.05862e-07, Final residual = 7.22031e-09, No Iterations 5
ExecutionTime = 7.13 s  ClockTime = 7 s

scalarTransport execute: age
smoothSolver:  Solving for age, Initial residual = 0.000333826, Final residual = 3.23861e-05, No Iterations 14

Time = 606

smoothSolver:  Solving for Ux, Initial residual = 6.40165e-07, Final residual = 4.16034e-08, No Iterations 5
smoothSolver:  Solving for Uy, Initial residual = 4.52881e-07, Final residual = 3.77179e-08, No Iterations 5
GAMG:  Solving for p, Initial residual = 1.34038e-06, Final residual = 8.43991e-08, No Iterations 3
time step continuity errors : sum local = 1.99212e-07, global = 7.45087e-09, cumulative = 0.0166232
smoothSolver:  Solving for omega, Initial residual = 7.13908e-08, Final residual = 7.42281e-09, No Iterations 3
smoothSolver:  Solving for k, Initial residual = 1.02294e-07, Final residual = 7.03519e-09, No Iterations 5
ExecutionTime = 7.15 s  ClockTime = 7 s

scalarTransport execute: age
smoothSolver:  Solving for age, Initial residual = 0.000333237, Final residual = 3.23275e-05, No Iterations 14

Time = 607

smoothSolver:  Solving for Ux, Initial residual = 6.11789e-07, Final residual = 3.88016e-08, No Iterations 5
smoothSolver:  Solving for Uy, Initial residual = 4.43164e-07, Final residual = 3.74718e-08, No Iterations 5
GAMG:  Solving for p, Initial residual = 1.29522e-06, Final residual = 1.17887e-07, No Iterations 2
time step continuity errors : sum local = 2.78256e-07, global = 1.35775e-08, cumulative = 0.0166232
smoothSolver:  Solving for omega, Initial residual = 6.97049e-08, Final residual = 7.42101e-09, No Iterations 3
smoothSolver:  Solving for k, Initial residual = 1.01744e-07, Final residual = 6.93961e-09, No Iterations 5
ExecutionTime = 7.16 s  ClockTime = 7 s

scalarTransport execute: age
smoothSolver:  Solving for age, Initial residual = 0.000332658, Final residual = 3.22725e-05, No Iterations 14

Time = 608

smoothSolver:  Solving for Ux, Initial residual = 6.12112e-07, Final residual = 3.97898e-08, No Iterations 5
smoothSolver:  Solving for Uy, Initial residual = 4.32831e-07, Final residual = 3.60635e-08, No Iterations 5
GAMG:  Solving for p, Initial residual = 1.28355e-06, Final residual = 8.1091e-08, No Iterations 3
time step continuity errors : sum local = 1.91404e-07, global = 7.05786e-09, cumulative = 0.0166233
smoothSolver:  Solving for omega, Initial residual = 6.84266e-08, Final residual = 7.13335e-09, No Iterations 3
smoothSolver:  Solving for k, Initial residual = 9.83116e-08, Final residual = 6.76127e-09, No Iterations 5
ExecutionTime = 7.17 s  ClockTime = 7 s

scalarTransport execute: age
smoothSolver:  Solving for age, Initial residual = 0.000332073, Final residual = 3.22145e-05, No Iterations 14

Time = 609

smoothSolver:  Solving for Ux, Initial residual = 5.8467e-07, Final residual = 3.708e-08, No Iterations 5
smoothSolver:  Solving for Uy, Initial residual = 4.2351e-07, Final residual = 3.58421e-08, No Iterations 5
GAMG:  Solving for p, Initial residual = 1.24135e-06, Final residual = 1.12679e-07, No Iterations 2
time step continuity errors : sum local = 2.65963e-07, global = 1.28881e-08, cumulative = 0.0166233
smoothSolver:  Solving for omega, Initial residual = 6.68217e-08, Final residual = 7.13421e-09, No Iterations 3
smoothSolver:  Solving for k, Initial residual = 9.77694e-08, Final residual = 6.66972e-09, No Iterations 5
ExecutionTime = 7.18 s  ClockTime = 7 s

scalarTransport execute: age
smoothSolver:  Solving for age, Initial residual = 0.000331497, Final residual = 3.21599e-05, No Iterations 14

Time = 610

smoothSolver:  Solving for Ux, Initial residual = 5.84863e-07, Final residual = 3.80251e-08, No Iterations 5
smoothSolver:  Solving for Uy, Initial residual = 4.13581e-07, Final residual = 3.44792e-08, No Iterations 5
GAMG:  Solving for p, Initial residual = 1.22837e-06, Final residual = 7.76822e-08, No Iterations 3
time step continuity errors : sum local = 1.83358e-07, global = 6.72796e-09, cumulative = 0.0166233
smoothSolver:  Solving for omega, Initial residual = 6.55894e-08, Final residual = 6.85245e-09, No Iterations 3
smoothSolver:  Solving for k, Initial residual = 9.44754e-08, Final residual = 6.49833e-09, No Iterations 5
ExecutionTime = 7.19 s  ClockTime = 7 s

scalarTransport execute: age
smoothSolver:  Solving for age, Initial residual = 0.000330917, Final residual = 3.21023e-05, No Iterations 14

Time = 611

smoothSolver:  Solving for Ux, Initial residual = 5.58385e-07, Final residual = 3.54119e-08, No Iterations 5
smoothSolver:  Solving for Uy, Initial residual = 4.04745e-07, Final residual = 3.42947e-08, No Iterations 5
GAMG:  Solving for p, Initial residual = 1.18806e-06, Final residual = 1.07624e-07, No Iterations 2
time step continuity errors : sum local = 2.54032e-07, global = 1.22329e-08, cumulative = 0.0166233
smoothSolver:  Solving for omega, Initial residual = 6.40194e-08, Final residual = 6.85347e-09, No Iterations 3
smoothSolver:  Solving for k, Initial residual = 9.39456e-08, Final residual = 6.41032e-09, No Iterations 5
ExecutionTime = 7.2 s  ClockTime = 7 s

scalarTransport execute: age
smoothSolver:  Solving for age, Initial residual = 0.000330345, Final residual = 3.2048e-05, No Iterations 14

Time = 612

smoothSolver:  Solving for Ux, Initial residual = 5.58583e-07, Final residual = 3.63213e-08, No Iterations 5
smoothSolver:  Solving for Uy, Initial residual = 3.95237e-07, Final residual = 3.29764e-08, No Iterations 5
GAMG:  Solving for p, Initial residual = 1.17462e-06, Final residual = 7.4323e-08, No Iterations 3
time step continuity errors : sum local = 1.7543e-07, global = 6.43766e-09, cumulative = 0.0166233
smoothSolver:  Solving for omega, Initial residual = 6.28306e-08, Final residual = 6.57824e-09, No Iterations 3
smoothSolver:  Solving for k, Initial residual = 9.07902e-08, Final residual = 6.24525e-09, No Iterations 5
ExecutionTime = 7.22 s  ClockTime = 7 s

scalarTransport execute: age
smoothSolver:  Solving for age, Initial residual = 0.000329769, Final residual = 3.19908e-05, No Iterations 14

Time = 613

smoothSolver:  Solving for Ux, Initial residual = 5.33143e-07, Final residual = 3.38034e-08, No Iterations 5
smoothSolver:  Solving for Uy, Initial residual = 3.86734e-07, Final residual = 3.28085e-08, No Iterations 5
GAMG:  Solving for p, Initial residual = 1.13635e-06, Final residual = 1.02818e-07, No Iterations 2
time step continuity errors : sum local = 2.42689e-07, global = 1.16112e-08, cumulative = 0.0166233
smoothSolver:  Solving for omega, Initial residual = 6.12914e-08, Final residual = 6.57837e-09, No Iterations 3
smoothSolver:  Solving for k, Initial residual = 9.027e-08, Final residual = 6.1601e-09, No Iterations 5
ExecutionTime = 7.23 s  ClockTime = 7 s

scalarTransport execute: age
smoothSolver:  Solving for age, Initial residual = 0.000329201, Final residual = 3.19367e-05, No Iterations 14

Time = 614

smoothSolver:  Solving for Ux, Initial residual = 5.33347e-07, Final residual = 3.46816e-08, No Iterations 5
smoothSolver:  Solving for Uy, Initial residual = 3.77739e-07, Final residual = 3.1546e-08, No Iterations 5
GAMG:  Solving for p, Initial residual = 1.12294e-06, Final residual = 7.10967e-08, No Iterations 3
time step continuity errors : sum local = 1.67815e-07, global = 6.15852e-09, cumulative = 0.0166233
smoothSolver:  Solving for omega, Initial residual = 6.0161e-08, Final residual = 6.31104e-09, No Iterations 3
smoothSolver:  Solving for k, Initial residual = 8.72527e-08, Final residual = 9.88359e-09, No Iterations 4
ExecutionTime = 7.24 s  ClockTime = 7 s

scalarTransport execute: age
smoothSolver:  Solving for age, Initial residual = 0.000328628, Final residual = 3.18799e-05, No Iterations 14

Time = 615

smoothSolver:  Solving for Ux, Initial residual = 5.09277e-07, Final residual = 3.22937e-08, No Iterations 5
smoothSolver:  Solving for Uy, Initial residual = 3.69368e-07, Final residual = 3.13647e-08, No Iterations 5
GAMG:  Solving for p, Initial residual = 1.08652e-06, Final residual = 9.82556e-08, No Iterations 2
time step continuity errors : sum local = 2.3192e-07, global = 1.1012e-08, cumulative = 0.0166233
smoothSolver:  Solving for omega, Initial residual = 5.8528e-08, Final residual = 6.29724e-09, No Iterations 3
smoothSolver:  Solving for k, Initial residual = 8.7012e-08, Final residual = 9.78755e-09, No Iterations 4
ExecutionTime = 7.25 s  ClockTime = 7 s

scalarTransport execute: age
smoothSolver:  Solving for age, Initial residual = 0.000328063, Final residual = 3.1826e-05, No Iterations 14

Time = 616

smoothSolver:  Solving for Ux, Initial residual = 5.09752e-07, Final residual = 3.31734e-08, No Iterations 5
smoothSolver:  Solving for Uy, Initial residual = 3.60859e-07, Final residual = 3.0159e-08, No Iterations 5
GAMG:  Solving for p, Initial residual = 1.07324e-06, Final residual = 6.80242e-08, No Iterations 3
time step continuity errors : sum local = 1.60562e-07, global = 5.8832e-09, cumulative = 0.0166233
smoothSolver:  Solving for omega, Initial residual = 5.74116e-08, Final residual = 6.03246e-09, No Iterations 3
smoothSolver:  Solving for k, Initial residual = 8.43822e-08, Final residual = 9.56461e-09, No Iterations 4
ExecutionTime = 7.26 s  ClockTime = 7 s

scalarTransport execute: age
smoothSolver:  Solving for age, Initial residual = 0.000327494, Final residual = 3.17696e-05, No Iterations 14

Time = 617

smoothSolver:  Solving for Ux, Initial residual = 4.86596e-07, Final residual = 3.08676e-08, No Iterations 5
smoothSolver:  Solving for Uy, Initial residual = 3.53085e-07, Final residual = 3.00196e-08, No Iterations 5
GAMG:  Solving for p, Initial residual = 1.03938e-06, Final residual = 9.39101e-08, No Iterations 2
time step continuity errors : sum local = 2.21663e-07, global = 1.04452e-08, cumulative = 0.0166233
smoothSolver:  Solving for omega, Initial residual = 5.59361e-08, Final residual = 6.0294e-09, No Iterations 3
smoothSolver:  Solving for k, Initial residual = 8.40949e-08, Final residual = 9.46432e-09, No Iterations 4
ExecutionTime = 7.27 s  ClockTime = 7 s

scalarTransport execute: age
smoothSolver:  Solving for age, Initial residual = 0.000326932, Final residual = 3.17159e-05, No Iterations 14

Time = 618

smoothSolver:  Solving for Ux, Initial residual = 4.87064e-07, Final residual = 3.17194e-08, No Iterations 5
smoothSolver:  Solving for Uy, Initial residual = 3.45118e-07, Final residual = 2.88774e-08, No Iterations 5
GAMG:  Solving for p, Initial residual = 1.02664e-06, Final residual = 6.51326e-08, No Iterations 3
time step continuity errors : sum local = 1.53737e-07, global = 5.62165e-09, cumulative = 0.0166233
smoothSolver:  Solving for omega, Initial residual = 5.4913e-08, Final residual = 5.77861e-09, No Iterations 3
smoothSolver:  Solving for k, Initial residual = 8.15361e-08, Final residual = 9.24276e-09, No Iterations 4
ExecutionTime = 7.29 s  ClockTime = 7 s

scalarTransport execute: age
smoothSolver:  Solving for age, Initial residual = 0.000326367, Final residual = 3.16598e-05, No Iterations 14

Time = 619

smoothSolver:  Solving for Ux, Initial residual = 4.64877e-07, Final residual = 2.94974e-08, No Iterations 5
smoothSolver:  Solving for Uy, Initial residual = 3.37666e-07, Final residual = 2.87482e-08, No Iterations 5
GAMG:  Solving for p, Initial residual = 9.94749e-07, Final residual = 8.98322e-08, No Iterations 2
time step continuity errors : sum local = 2.12038e-07, global = 9.89174e-09, cumulative = 0.0166234
smoothSolver:  Solving for omega, Initial residual = 5.3522e-08, Final residual = 5.78028e-09, No Iterations 3
smoothSolver:  Solving for k, Initial residual = 8.12077e-08, Final residual = 9.13917e-09, No Iterations 4
ExecutionTime = 7.3 s  ClockTime = 7 s


SIMPLE solution converged in 619 iterations

scalarTransport execute: age
smoothSolver:  Solving for age, Initial residual = 0.000325808, Final residual = 3.16064e-05, No Iterations 14

End

