/*---------------------------------------------------------------------------*\
| =========                 |                                                 |
| \\      /  F ield         | OpenFOAM: The Open Source CFD Toolbox           |
|  \\    /   O peration     | Version:  v2012                                 |
|   \\  /    A nd           | Website:  www.openfoam.com                      |
|    \\/     M anipulation  |                                                 |
\*---------------------------------------------------------------------------*/
Build  : _7bdb509494-20201222 OPENFOAM=2012
Arch   : "LSB;label=32;scalar=64"
Exec   : simpleFoam
Date   : Feb 22 2023
Time   : 17:13:24
Host   : johnsDesktop
PID    : 5286
I/O    : uncollated
Case   : /home/john/of_runs/cases/0_1_4-00560_9
nProcs : 1
trapFpe: Floating point exception trapping enabled (FOAM_SIGFPE).
fileModificationChecking : Monitoring run-time modified files using timeStampMaster (fileModificationSkew 5, maxFileModificationPolls 20)
allowSystemOperations : Allowing user-supplied system call operations

// * * * * * * * * * * * * * * * * * * * * * * * * * * * * * * * * * * * * * //
Create time

Create mesh for time = 0


SIMPLE: convergence criteria
    field p	 tolerance 1e-06
    field U	 tolerance 1e-06
    field "(k|epsilon|omega|f|v2|age)"	 tolerance 1e-05

Reading field p

Reading field U

Reading/calculating face flux field phi

Selecting incompressible transport model Newtonian
Selecting turbulence model type RAS
Selecting RAS turbulence model kOmegaSST
Selecting patchDistMethod meshWave
RAS
{
    RASModel        kOmegaSST;
    turbulence      on;
    printCoeffs     on;
    alphaK1         0.85;
    alphaK2         1;
    alphaOmega1     0.5;
    alphaOmega2     0.856;
    gamma1          0.555556;
    gamma2          0.44;
    beta1           0.075;
    beta2           0.0828;
    betaStar        0.09;
    a1              0.31;
    b1              1;
    c1              10;
    F3              false;
    decayControl    false;
    kInf            0;
    omegaInf        0;
}

No MRF models present

No finite volume options present

Starting time loop

Selecting finite volume options type scalarSemiImplicitSource
    Source: unitySource
    - selecting all cells
    - selected 6108 cell(s) with volume 0.03195
Time = 1

smoothSolver:  Solving for Ux, Initial residual = 0, Final residual = 0, No Iterations 0
smoothSolver:  Solving for Uy, Initial residual = 1, Final residual = 0.0866668, No Iterations 2
GAMG:  Solving for p, Initial residual = 1, Final residual = 0.0639613, No Iterations 11
time step continuity errors : sum local = 0.00400384, global = -0.000468185, cumulative = -0.000468185
smoothSolver:  Solving for omega, Initial residual = 0.29515, Final residual = 0.0125562, No Iterations 3
smoothSolver:  Solving for k, Initial residual = 1, Final residual = 0.0816366, No Iterations 3
ExecutionTime = 0.05 s  ClockTime = 0 s

scalarTransport execute: age
smoothSolver:  Solving for age, Initial residual = 1, Final residual = 0.0998403, No Iterations 3

Time = 2

smoothSolver:  Solving for Ux, Initial residual = 0.576155, Final residual = 0.0499023, No Iterations 6
smoothSolver:  Solving for Uy, Initial residual = 0.27795, Final residual = 0.0201766, No Iterations 6
GAMG:  Solving for p, Initial residual = 0.0445065, Final residual = 0.00397607, No Iterations 4
time step continuity errors : sum local = 0.043857, global = 0.00551596, cumulative = 0.00504777
smoothSolver:  Solving for omega, Initial residual = 0.263344, Final residual = 0.0138419, No Iterations 4
smoothSolver:  Solving for k, Initial residual = 0.612503, Final residual = 0.0591002, No Iterations 4
ExecutionTime = 0.07 s  ClockTime = 0 s

scalarTransport execute: age
smoothSolver:  Solving for age, Initial residual = 0.578692, Final residual = 0.0495231, No Iterations 19

Time = 3

smoothSolver:  Solving for Ux, Initial residual = 0.24319, Final residual = 0.0184852, No Iterations 6
smoothSolver:  Solving for Uy, Initial residual = 0.0980958, Final residual = 0.00913735, No Iterations 5
GAMG:  Solving for p, Initial residual = 0.054541, Final residual = 0.0034112, No Iterations 5
time step continuity errors : sum local = 0.0166464, global = 0.002017, cumulative = 0.00706477
smoothSolver:  Solving for omega, Initial residual = 0.240432, Final residual = 0.0139309, No Iterations 5
smoothSolver:  Solving for k, Initial residual = 0.516886, Final residual = 0.0404929, No Iterations 5
ExecutionTime = 0.08 s  ClockTime = 0 s

scalarTransport execute: age
smoothSolver:  Solving for age, Initial residual = 0.198375, Final residual = 0.019192, No Iterations 14

Time = 4

smoothSolver:  Solving for Ux, Initial residual = 0.119448, Final residual = 0.0105138, No Iterations 3
smoothSolver:  Solving for Uy, Initial residual = 0.0509445, Final residual = 0.00368236, No Iterations 5
GAMG:  Solving for p, Initial residual = 0.0857453, Final residual = 0.00647412, No Iterations 3
time step continuity errors : sum local = 0.0154623, global = 0.00102908, cumulative = 0.00809385
smoothSolver:  Solving for omega, Initial residual = 0.136076, Final residual = 0.00980171, No Iterations 5
smoothSolver:  Solving for k, Initial residual = 0.447333, Final residual = 0.0391591, No Iterations 5
ExecutionTime = 0.09 s  ClockTime = 0 s

scalarTransport execute: age
smoothSolver:  Solving for age, Initial residual = 0.161552, Final residual = 0.013316, No Iterations 8

Time = 5

smoothSolver:  Solving for Ux, Initial residual = 0.0956253, Final residual = 0.00888381, No Iterations 5
smoothSolver:  Solving for Uy, Initial residual = 0.0335984, Final residual = 0.00261772, No Iterations 5
GAMG:  Solving for p, Initial residual = 0.0825181, Final residual = 0.00348841, No Iterations 2
time step continuity errors : sum local = 0.00694845, global = 0.000931897, cumulative = 0.00902575
smoothSolver:  Solving for omega, Initial residual = 0.0952089, Final residual = 0.00750618, No Iterations 5
smoothSolver:  Solving for k, Initial residual = 0.359663, Final residual = 0.0336949, No Iterations 5
ExecutionTime = 0.1 s  ClockTime = 0 s

scalarTransport execute: age
smoothSolver:  Solving for age, Initial residual = 0.150966, Final residual = 0.0143267, No Iterations 4

Time = 6

smoothSolver:  Solving for Ux, Initial residual = 0.0782995, Final residual = 0.00613164, No Iterations 6
smoothSolver:  Solving for Uy, Initial residual = 0.0269011, Final residual = 0.00224149, No Iterations 5
GAMG:  Solving for p, Initial residual = 0.0646724, Final residual = 0.00434272, No Iterations 2
time step continuity errors : sum local = 0.00887726, global = 0.000240286, cumulative = 0.00926603
smoothSolver:  Solving for omega, Initial residual = 0.0774115, Final residual = 0.00644605, No Iterations 5
smoothSolver:  Solving for k, Initial residual = 0.28735, Final residual = 0.0284852, No Iterations 5
ExecutionTime = 0.11 s  ClockTime = 0 s

scalarTransport execute: age
smoothSolver:  Solving for age, Initial residual = 0.129033, Final residual = 0.010114, No Iterations 5

Time = 7

smoothSolver:  Solving for Ux, Initial residual = 0.0688722, Final residual = 0.00548155, No Iterations 6
smoothSolver:  Solving for Uy, Initial residual = 0.0227856, Final residual = 0.0020474, No Iterations 5
GAMG:  Solving for p, Initial residual = 0.0526568, Final residual = 0.00421339, No Iterations 3
time step continuity errors : sum local = 0.00877072, global = -0.000666942, cumulative = 0.00859909
smoothSolver:  Solving for omega, Initial residual = 0.0590569, Final residual = 0.00526359, No Iterations 5
smoothSolver:  Solving for k, Initial residual = 0.238053, Final residual = 0.015587, No Iterations 6
ExecutionTime = 0.13 s  ClockTime = 0 s

scalarTransport execute: age
smoothSolver:  Solving for age, Initial residual = 0.119806, Final residual = 0.00771098, No Iterations 4

Time = 8

smoothSolver:  Solving for Ux, Initial residual = 0.0447555, Final residual = 0.00404473, No Iterations 5
smoothSolver:  Solving for Uy, Initial residual = 0.0209282, Final residual = 0.00195551, No Iterations 5
GAMG:  Solving for p, Initial residual = 0.0418409, Final residual = 0.00201144, No Iterations 3
time step continuity errors : sum local = 0.00472518, global = -0.000462799, cumulative = 0.00813629
smoothSolver:  Solving for omega, Initial residual = 0.0481106, Final residual = 0.00442528, No Iterations 5
smoothSolver:  Solving for k, Initial residual = 0.202852, Final residual = 0.0137251, No Iterations 6
ExecutionTime = 0.14 s  ClockTime = 0 s

scalarTransport execute: age
smoothSolver:  Solving for age, Initial residual = 0.10954, Final residual = 0.00894629, No Iterations 3

Time = 9

smoothSolver:  Solving for Ux, Initial residual = 0.0358475, Final residual = 0.00335907, No Iterations 5
smoothSolver:  Solving for Uy, Initial residual = 0.0180919, Final residual = 0.00164513, No Iterations 5
GAMG:  Solving for p, Initial residual = 0.0336159, Final residual = 0.00213513, No Iterations 2
time step continuity errors : sum local = 0.00543423, global = -0.00056235, cumulative = 0.00757394
smoothSolver:  Solving for omega, Initial residual = 0.040468, Final residual = 0.00381189, No Iterations 5
smoothSolver:  Solving for k, Initial residual = 0.175777, Final residual = 0.0122361, No Iterations 6
ExecutionTime = 0.15 s  ClockTime = 0 s

scalarTransport execute: age
smoothSolver:  Solving for age, Initial residual = 0.0991096, Final residual = 0.00772475, No Iterations 3

Time = 10

smoothSolver:  Solving for Ux, Initial residual = 0.0336591, Final residual = 0.00225381, No Iterations 6
smoothSolver:  Solving for Uy, Initial residual = 0.0185099, Final residual = 0.00168276, No Iterations 5
GAMG:  Solving for p, Initial residual = 0.0290072, Final residual = 0.00110411, No Iterations 2
time step continuity errors : sum local = 0.00291658, global = -0.000499855, cumulative = 0.00707409
smoothSolver:  Solving for omega, Initial residual = 0.0337425, Final residual = 0.00327368, No Iterations 5
smoothSolver:  Solving for k, Initial residual = 0.154902, Final residual = 0.011023, No Iterations 6
ExecutionTime = 0.16 s  ClockTime = 0 s

scalarTransport execute: age
smoothSolver:  Solving for age, Initial residual = 0.0945846, Final residual = 0.00571132, No Iterations 3

Time = 11

smoothSolver:  Solving for Ux, Initial residual = 0.0312478, Final residual = 0.00215665, No Iterations 6
smoothSolver:  Solving for Uy, Initial residual = 0.0166701, Final residual = 0.00155446, No Iterations 5
GAMG:  Solving for p, Initial residual = 0.0245917, Final residual = 0.000912666, No Iterations 2
time step continuity errors : sum local = 0.00244504, global = -0.000392045, cumulative = 0.00668204
smoothSolver:  Solving for omega, Initial residual = 0.0287544, Final residual = 0.00283952, No Iterations 5
smoothSolver:  Solving for k, Initial residual = 0.138156, Final residual = 0.0100135, No Iterations 6
ExecutionTime = 0.17 s  ClockTime = 0 s

scalarTransport execute: age
smoothSolver:  Solving for age, Initial residual = 0.0859713, Final residual = 0.00420077, No Iterations 3

Time = 12

smoothSolver:  Solving for Ux, Initial residual = 0.0299397, Final residual = 0.00209622, No Iterations 6
smoothSolver:  Solving for Uy, Initial residual = 0.0161013, Final residual = 0.00155563, No Iterations 5
GAMG:  Solving for p, Initial residual = 0.021557, Final residual = 0.000924153, No Iterations 2
time step continuity errors : sum local = 0.00250418, global = -0.000281571, cumulative = 0.00640047
smoothSolver:  Solving for omega, Initial residual = 0.0246878, Final residual = 0.00158173, No Iterations 6
smoothSolver:  Solving for k, Initial residual = 0.124129, Final residual = 0.00914212, No Iterations 6
ExecutionTime = 0.18 s  ClockTime = 0 s

scalarTransport execute: age
smoothSolver:  Solving for age, Initial residual = 0.0771858, Final residual = 0.00713926, No Iterations 2

Time = 13

smoothSolver:  Solving for Ux, Initial residual = 0.0288022, Final residual = 0.0020321, No Iterations 6
smoothSolver:  Solving for Uy, Initial residual = 0.0158663, Final residual = 0.00104605, No Iterations 6
GAMG:  Solving for p, Initial residual = 0.0199895, Final residual = 0.000953377, No Iterations 2
time step continuity errors : sum local = 0.00260033, global = -0.00018259, cumulative = 0.00621788
smoothSolver:  Solving for omega, Initial residual = 0.0212003, Final residual = 0.00138218, No Iterations 6
smoothSolver:  Solving for k, Initial residual = 0.112319, Final residual = 0.00838924, No Iterations 6
ExecutionTime = 0.19 s  ClockTime = 0 s

scalarTransport execute: age
smoothSolver:  Solving for age, Initial residual = 0.0690861, Final residual = 0.00675776, No Iterations 2

Time = 14

smoothSolver:  Solving for Ux, Initial residual = 0.0278492, Final residual = 0.0019834, No Iterations 6
smoothSolver:  Solving for Uy, Initial residual = 0.0155016, Final residual = 0.00104733, No Iterations 6
GAMG:  Solving for p, Initial residual = 0.0188404, Final residual = 0.000934608, No Iterations 2
time step continuity errors : sum local = 0.00255839, global = -7.72917e-05, cumulative = 0.00614059
smoothSolver:  Solving for omega, Initial residual = 0.0183927, Final residual = 0.00121668, No Iterations 6
smoothSolver:  Solving for k, Initial residual = 0.102441, Final residual = 0.0077419, No Iterations 6
ExecutionTime = 0.2 s  ClockTime = 0 s

scalarTransport execute: age
smoothSolver:  Solving for age, Initial residual = 0.0623253, Final residual = 0.00327236, No Iterations 3

Time = 15

smoothSolver:  Solving for Ux, Initial residual = 0.0270588, Final residual = 0.00193819, No Iterations 6
smoothSolver:  Solving for Uy, Initial residual = 0.0153001, Final residual = 0.00104814, No Iterations 6
GAMG:  Solving for p, Initial residual = 0.0178538, Final residual = 0.000871179, No Iterations 2
time step continuity errors : sum local = 0.00239053, global = 2.03567e-05, cumulative = 0.00616095
smoothSolver:  Solving for omega, Initial residual = 0.0161248, Final residual = 0.00107884, No Iterations 6
smoothSolver:  Solving for k, Initial residual = 0.0940277, Final residual = 0.00717729, No Iterations 6
ExecutionTime = 0.22 s  ClockTime = 0 s

scalarTransport execute: age
smoothSolver:  Solving for age, Initial residual = 0.0550969, Final residual = 0.00528733, No Iterations 2

Time = 16

smoothSolver:  Solving for Ux, Initial residual = 0.026283, Final residual = 0.00189039, No Iterations 6
smoothSolver:  Solving for Uy, Initial residual = 0.015058, Final residual = 0.00104222, No Iterations 6
GAMG:  Solving for p, Initial residual = 0.0171067, Final residual = 0.00081503, No Iterations 2
time step continuity errors : sum local = 0.00223773, global = 0.000110737, cumulative = 0.00627169
smoothSolver:  Solving for omega, Initial residual = 0.0142465, Final residual = 0.000962508, No Iterations 6
smoothSolver:  Solving for k, Initial residual = 0.0867859, Final residual = 0.00668131, No Iterations 6
ExecutionTime = 0.23 s  ClockTime = 0 s

scalarTransport execute: age
smoothSolver:  Solving for age, Initial residual = 0.0495665, Final residual = 0.00279214, No Iterations 3

Time = 17

smoothSolver:  Solving for Ux, Initial residual = 0.0255442, Final residual = 0.00184359, No Iterations 6
smoothSolver:  Solving for Uy, Initial residual = 0.0148714, Final residual = 0.00103283, No Iterations 6
GAMG:  Solving for p, Initial residual = 0.0163647, Final residual = 0.000773128, No Iterations 2
time step continuity errors : sum local = 0.00212098, global = 0.000175126, cumulative = 0.00644681
smoothSolver:  Solving for omega, Initial residual = 0.012694, Final residual = 0.000863755, No Iterations 6
smoothSolver:  Solving for k, Initial residual = 0.0804986, Final residual = 0.00624274, No Iterations 6
ExecutionTime = 0.24 s  ClockTime = 0 s

scalarTransport execute: age
smoothSolver:  Solving for age, Initial residual = 0.0434092, Final residual = 0.00261233, No Iterations 3

Time = 18

smoothSolver:  Solving for Ux, Initial residual = 0.0248489, Final residual = 0.00180294, No Iterations 6
smoothSolver:  Solving for Uy, Initial residual = 0.0146669, Final residual = 0.00102063, No Iterations 6
GAMG:  Solving for p, Initial residual = 0.0157805, Final residual = 0.000740133, No Iterations 2
time step continuity errors : sum local = 0.0020251, global = 0.000219716, cumulative = 0.00666653
smoothSolver:  Solving for omega, Initial residual = 0.0113895, Final residual = 0.000779366, No Iterations 6
smoothSolver:  Solving for k, Initial residual = 0.0749972, Final residual = 0.00585297, No Iterations 6
ExecutionTime = 0.25 s  ClockTime = 0 s

scalarTransport execute: age
smoothSolver:  Solving for age, Initial residual = 0.0383899, Final residual = 0.00235707, No Iterations 3

Time = 19

smoothSolver:  Solving for Ux, Initial residual = 0.0242041, Final residual = 0.0017669, No Iterations 6
smoothSolver:  Solving for Uy, Initial residual = 0.0144635, Final residual = 0.00100719, No Iterations 6
GAMG:  Solving for p, Initial residual = 0.0153035, Final residual = 0.000726184, No Iterations 2
time step continuity errors : sum local = 0.00197864, global = 0.00024592, cumulative = 0.00691245
smoothSolver:  Solving for omega, Initial residual = 0.0102814, Final residual = 0.000706644, No Iterations 6
smoothSolver:  Solving for k, Initial residual = 0.0701458, Final residual = 0.00550459, No Iterations 6
ExecutionTime = 0.26 s  ClockTime = 0 s

scalarTransport execute: age
smoothSolver:  Solving for age, Initial residual = 0.0342843, Final residual = 0.00224462, No Iterations 3

Time = 20

smoothSolver:  Solving for Ux, Initial residual = 0.0236627, Final residual = 0.00173518, No Iterations 6
smoothSolver:  Solving for Uy, Initial residual = 0.0142374, Final residual = 0.000994418, No Iterations 6
GAMG:  Solving for p, Initial residual = 0.014856, Final residual = 0.000727393, No Iterations 2
time step continuity errors : sum local = 0.00196834, global = 0.00025637, cumulative = 0.00716882
smoothSolver:  Solving for omega, Initial residual = 0.00933125, Final residual = 0.000643479, No Iterations 6
smoothSolver:  Solving for k, Initial residual = 0.0658471, Final residual = 0.0051921, No Iterations 6
ExecutionTime = 0.27 s  ClockTime = 0 s

scalarTransport execute: age
smoothSolver:  Solving for age, Initial residual = 0.0308925, Final residual = 0.00217874, No Iterations 3

Time = 21

smoothSolver:  Solving for Ux, Initial residual = 0.023189, Final residual = 0.00170753, No Iterations 6
smoothSolver:  Solving for Uy, Initial residual = 0.0140046, Final residual = 0.000982893, No Iterations 6
GAMG:  Solving for p, Initial residual = 0.0144403, Final residual = 0.000737637, No Iterations 2
time step continuity errors : sum local = 0.0019783, global = 0.000255057, cumulative = 0.00742387
smoothSolver:  Solving for omega, Initial residual = 0.00850906, Final residual = 0.00058828, No Iterations 6
smoothSolver:  Solving for k, Initial residual = 0.062016, Final residual = 0.0049103, No Iterations 6
ExecutionTime = 0.28 s  ClockTime = 0 s

scalarTransport execute: age
smoothSolver:  Solving for age, Initial residual = 0.0278502, Final residual = 0.00213013, No Iterations 3

Time = 22

smoothSolver:  Solving for Ux, Initial residual = 0.0227694, Final residual = 0.00168287, No Iterations 6
smoothSolver:  Solving for Uy, Initial residual = 0.0137455, Final residual = 0.000969833, No Iterations 6
GAMG:  Solving for p, Initial residual = 0.0139745, Final residual = 0.000751475, No Iterations 2
time step continuity errors : sum local = 0.00199789, global = 0.000246859, cumulative = 0.00767073
smoothSolver:  Solving for omega, Initial residual = 0.00778987, Final residual = 0.000539795, No Iterations 6
smoothSolver:  Solving for k, Initial residual = 0.0585785, Final residual = 0.00465504, No Iterations 6
ExecutionTime = 0.29 s  ClockTime = 0 s

scalarTransport execute: age
smoothSolver:  Solving for age, Initial residual = 0.0254191, Final residual = 0.00212638, No Iterations 3

Time = 23

smoothSolver:  Solving for Ux, Initial residual = 0.0223805, Final residual = 0.00166047, No Iterations 6
smoothSolver:  Solving for Uy, Initial residual = 0.0135077, Final residual = 0.000956481, No Iterations 6
GAMG:  Solving for p, Initial residual = 0.0134086, Final residual = 0.000769237, No Iterations 2
time step continuity errors : sum local = 0.00203089, global = 0.000236824, cumulative = 0.00790756
smoothSolver:  Solving for omega, Initial residual = 0.00716048, Final residual = 0.000497049, No Iterations 6
smoothSolver:  Solving for k, Initial residual = 0.0554797, Final residual = 0.00442299, No Iterations 6
ExecutionTime = 0.31 s  ClockTime = 0 s

scalarTransport execute: age
smoothSolver:  Solving for age, Initial residual = 0.0235381, Final residual = 0.00216542, No Iterations 3

Time = 24

smoothSolver:  Solving for Ux, Initial residual = 0.0220453, Final residual = 0.00164039, No Iterations 6
smoothSolver:  Solving for Uy, Initial residual = 0.0132552, Final residual = 0.000942437, No Iterations 6
GAMG:  Solving for p, Initial residual = 0.0128574, Final residual = 0.000780627, No Iterations 2
time step continuity errors : sum local = 0.00205029, global = 0.000222796, cumulative = 0.00813035
smoothSolver:  Solving for omega, Initial residual = 0.00660338, Final residual = 0.000459103, No Iterations 6
smoothSolver:  Solving for k, Initial residual = 0.0526701, Final residual = 0.00421095, No Iterations 6
ExecutionTime = 0.32 s  ClockTime = 0 s

scalarTransport execute: age
smoothSolver:  Solving for age, Initial residual = 0.0220486, Final residual = 0.001699, No Iterations 4

Time = 25

smoothSolver:  Solving for Ux, Initial residual = 0.0216984, Final residual = 0.00162224, No Iterations 6
smoothSolver:  Solving for Uy, Initial residual = 0.0129926, Final residual = 0.000927311, No Iterations 6
GAMG:  Solving for p, Initial residual = 0.0122764, Final residual = 0.000787407, No Iterations 2
time step continuity errors : sum local = 0.00205817, global = 0.000207131, cumulative = 0.00833748
smoothSolver:  Solving for omega, Initial residual = 0.00611081, Final residual = 0.000425302, No Iterations 6
smoothSolver:  Solving for k, Initial residual = 0.0501122, Final residual = 0.00401622, No Iterations 6
ExecutionTime = 0.33 s  ClockTime = 0 s

scalarTransport execute: age
smoothSolver:  Solving for age, Initial residual = 0.0205642, Final residual = 0.00165859, No Iterations 4

Time = 26

smoothSolver:  Solving for Ux, Initial residual = 0.0213974, Final residual = 0.00160649, No Iterations 6
smoothSolver:  Solving for Uy, Initial residual = 0.0127414, Final residual = 0.000911692, No Iterations 6
GAMG:  Solving for p, Initial residual = 0.0117639, Final residual = 0.000786367, No Iterations 2
time step continuity errors : sum local = 0.00204657, global = 0.000191438, cumulative = 0.00852892
smoothSolver:  Solving for omega, Initial residual = 0.00567166, Final residual = 0.00039512, No Iterations 6
smoothSolver:  Solving for k, Initial residual = 0.0477718, Final residual = 0.00383681, No Iterations 6
ExecutionTime = 0.34 s  ClockTime = 0 s

scalarTransport execute: age
smoothSolver:  Solving for age, Initial residual = 0.0195021, Final residual = 0.00169136, No Iterations 4

Time = 27

smoothSolver:  Solving for Ux, Initial residual = 0.0211194, Final residual = 0.00159218, No Iterations 6
smoothSolver:  Solving for Uy, Initial residual = 0.0125279, Final residual = 0.00089606, No Iterations 6
GAMG:  Solving for p, Initial residual = 0.0115369, Final residual = 0.000775448, No Iterations 2
time step continuity errors : sum local = 0.00201042, global = 0.000173619, cumulative = 0.00870254
smoothSolver:  Solving for omega, Initial residual = 0.00527948, Final residual = 0.000368236, No Iterations 6
smoothSolver:  Solving for k, Initial residual = 0.045621, Final residual = 0.00367081, No Iterations 6
ExecutionTime = 0.35 s  ClockTime = 0 s

scalarTransport execute: age
smoothSolver:  Solving for age, Initial residual = 0.0188224, Final residual = 0.00178159, No Iterations 4

Time = 28

smoothSolver:  Solving for Ux, Initial residual = 0.0208665, Final residual = 0.00158022, No Iterations 6
smoothSolver:  Solving for Uy, Initial residual = 0.0123264, Final residual = 0.000879807, No Iterations 6
GAMG:  Solving for p, Initial residual = 0.011673, Final residual = 0.000757917, No Iterations 2
time step continuity errors : sum local = 0.00195748, global = 0.000158704, cumulative = 0.00886125
smoothSolver:  Solving for omega, Initial residual = 0.00493348, Final residual = 0.000344184, No Iterations 6
smoothSolver:  Solving for k, Initial residual = 0.043638, Final residual = 0.00351684, No Iterations 6
ExecutionTime = 0.36 s  ClockTime = 0 s

scalarTransport execute: age
smoothSolver:  Solving for age, Initial residual = 0.018577, Final residual = 0.00148687, No Iterations 5

Time = 29

smoothSolver:  Solving for Ux, Initial residual = 0.0206735, Final residual = 0.00157094, No Iterations 6
smoothSolver:  Solving for Uy, Initial residual = 0.0121454, Final residual = 0.000864181, No Iterations 6
GAMG:  Solving for p, Initial residual = 0.0119653, Final residual = 0.000743999, No Iterations 2
time step continuity errors : sum local = 0.00191534, global = 0.000147767, cumulative = 0.00900901
smoothSolver:  Solving for omega, Initial residual = 0.00462352, Final residual = 0.000322361, No Iterations 6
smoothSolver:  Solving for k, Initial residual = 0.0417981, Final residual = 0.0033733, No Iterations 6
ExecutionTime = 0.37 s  ClockTime = 0 s

scalarTransport execute: age
smoothSolver:  Solving for age, Initial residual = 0.0185337, Final residual = 0.00149583, No Iterations 5

Time = 30

smoothSolver:  Solving for Ux, Initial residual = 0.0205657, Final residual = 0.00156453, No Iterations 6
smoothSolver:  Solving for Uy, Initial residual = 0.0119441, Final residual = 0.000847772, No Iterations 6
GAMG:  Solving for p, Initial residual = 0.0122703, Final residual = 0.000742231, No Iterations 2
time step continuity errors : sum local = 0.00190156, global = 0.00014212, cumulative = 0.00915113
smoothSolver:  Solving for omega, Initial residual = 0.00434594, Final residual = 0.000302443, No Iterations 6
smoothSolver:  Solving for k, Initial residual = 0.0400808, Final residual = 0.00323866, No Iterations 6
ExecutionTime = 0.39 s  ClockTime = 0 s

scalarTransport execute: age
smoothSolver:  Solving for age, Initial residual = 0.0183928, Final residual = 0.00152268, No Iterations 5

Time = 31

smoothSolver:  Solving for Ux, Initial residual = 0.0204966, Final residual = 0.00155969, No Iterations 6
smoothSolver:  Solving for Uy, Initial residual = 0.0117103, Final residual = 0.000830085, No Iterations 6
GAMG:  Solving for p, Initial residual = 0.0123723, Final residual = 0.00076798, No Iterations 2
time step continuity errors : sum local = 0.00195679, global = 0.000138663, cumulative = 0.0092898
smoothSolver:  Solving for omega, Initial residual = 0.00409034, Final residual = 0.000284172, No Iterations 6
smoothSolver:  Solving for k, Initial residual = 0.0384787, Final residual = 0.00311234, No Iterations 6
ExecutionTime = 0.4 s  ClockTime = 0 s

scalarTransport execute: age
smoothSolver:  Solving for age, Initial residual = 0.0182989, Final residual = 0.00159519, No Iterations 5

Time = 32

smoothSolver:  Solving for Ux, Initial residual = 0.0204604, Final residual = 0.00155487, No Iterations 6
smoothSolver:  Solving for Uy, Initial residual = 0.0114377, Final residual = 0.000810214, No Iterations 6
GAMG:  Solving for p, Initial residual = 0.012223, Final residual = 0.000789428, No Iterations 2
time step continuity errors : sum local = 0.00200212, global = 0.000135752, cumulative = 0.00942555
smoothSolver:  Solving for omega, Initial residual = 0.00385641, Final residual = 0.000267371, No Iterations 6
smoothSolver:  Solving for k, Initial residual = 0.0369802, Final residual = 0.00299382, No Iterations 6
ExecutionTime = 0.41 s  ClockTime = 0 s

scalarTransport execute: age
smoothSolver:  Solving for age, Initial residual = 0.0182771, Final residual = 0.00169016, No Iterations 5

Time = 33

smoothSolver:  Solving for Ux, Initial residual = 0.0204205, Final residual = 0.00155098, No Iterations 6
smoothSolver:  Solving for Uy, Initial residual = 0.0111131, Final residual = 0.000787926, No Iterations 6
GAMG:  Solving for p, Initial residual = 0.0118194, Final residual = 0.000793566, No Iterations 2
time step continuity errors : sum local = 0.00200499, global = 0.000132571, cumulative = 0.00955812
smoothSolver:  Solving for omega, Initial residual = 0.00364318, Final residual = 0.000251829, No Iterations 6
smoothSolver:  Solving for k, Initial residual = 0.0355748, Final residual = 0.00288245, No Iterations 6
ExecutionTime = 0.42 s  ClockTime = 0 s

scalarTransport execute: age
smoothSolver:  Solving for age, Initial residual = 0.0182608, Final residual = 0.00179681, No Iterations 5

Time = 34

smoothSolver:  Solving for Ux, Initial residual = 0.0203795, Final residual = 0.0015451, No Iterations 6
smoothSolver:  Solving for Uy, Initial residual = 0.0107505, Final residual = 0.000764173, No Iterations 6
GAMG:  Solving for p, Initial residual = 0.0112348, Final residual = 0.000780432, No Iterations 2
time step continuity errors : sum local = 0.00196554, global = 0.000128109, cumulative = 0.00968623
smoothSolver:  Solving for omega, Initial residual = 0.0034467, Final residual = 0.000237416, No Iterations 6
smoothSolver:  Solving for k, Initial residual = 0.0342559, Final residual = 0.00277789, No Iterations 6
ExecutionTime = 0.43 s  ClockTime = 0 s

scalarTransport execute: age
smoothSolver:  Solving for age, Initial residual = 0.0182309, Final residual = 0.00149599, No Iterations 6

Time = 35

smoothSolver:  Solving for Ux, Initial residual = 0.0203066, Final residual = 0.00153957, No Iterations 6
smoothSolver:  Solving for Uy, Initial residual = 0.010368, Final residual = 0.000740176, No Iterations 6
GAMG:  Solving for p, Initial residual = 0.0106586, Final residual = 0.000769542, No Iterations 2
time step continuity errors : sum local = 0.00193322, global = 0.000118197, cumulative = 0.00980443
smoothSolver:  Solving for omega, Initial residual = 0.00326519, Final residual = 0.000224037, No Iterations 6
smoothSolver:  Solving for k, Initial residual = 0.0330158, Final residual = 0.00267974, No Iterations 6
ExecutionTime = 0.44 s  ClockTime = 0 s

scalarTransport execute: age
smoothSolver:  Solving for age, Initial residual = 0.0180449, Final residual = 0.0015037, No Iterations 6

Time = 36

smoothSolver:  Solving for Ux, Initial residual = 0.0202216, Final residual = 0.00153215, No Iterations 6
smoothSolver:  Solving for Uy, Initial residual = 0.00999144, Final residual = 0.00071756, No Iterations 6
GAMG:  Solving for p, Initial residual = 0.0102211, Final residual = 0.000772033, No Iterations 2
time step continuity errors : sum local = 0.00193822, global = 0.000106731, cumulative = 0.00991116
smoothSolver:  Solving for omega, Initial residual = 0.00309429, Final residual = 0.000211558, No Iterations 6
smoothSolver:  Solving for k, Initial residual = 0.0318511, Final residual = 0.00258787, No Iterations 6
ExecutionTime = 0.45 s  ClockTime = 0 s

scalarTransport execute: age
smoothSolver:  Solving for age, Initial residual = 0.0189463, Final residual = 0.00153508, No Iterations 6

Time = 37

smoothSolver:  Solving for Ux, Initial residual = 0.020129, Final residual = 0.00152406, No Iterations 6
smoothSolver:  Solving for Uy, Initial residual = 0.00968253, Final residual = 0.000698521, No Iterations 6
GAMG:  Solving for p, Initial residual = 0.00970615, Final residual = 0.000810072, No Iterations 2
time step continuity errors : sum local = 0.00202218, global = 9.73423e-05, cumulative = 0.0100085
smoothSolver:  Solving for omega, Initial residual = 0.00293548, Final residual = 0.0001999, No Iterations 6
smoothSolver:  Solving for k, Initial residual = 0.0307592, Final residual = 0.00250188, No Iterations 6
ExecutionTime = 0.47 s  ClockTime = 0 s

scalarTransport execute: age
smoothSolver:  Solving for age, Initial residual = 0.0185596, Final residual = 0.0015929, No Iterations 6

Time = 38

smoothSolver:  Solving for Ux, Initial residual = 0.0200271, Final residual = 0.00151501, No Iterations 6
smoothSolver:  Solving for Uy, Initial residual = 0.00941341, Final residual = 0.000682247, No Iterations 6
GAMG:  Solving for p, Initial residual = 0.00944756, Final residual = 0.000875068, No Iterations 2
time step continuity errors : sum local = 0.00217956, global = 8.95592e-05, cumulative = 0.0100981
smoothSolver:  Solving for omega, Initial residual = 0.00278908, Final residual = 0.000189022, No Iterations 6
smoothSolver:  Solving for k, Initial residual = 0.0297389, Final residual = 0.00242157, No Iterations 6
ExecutionTime = 0.48 s  ClockTime = 0 s

scalarTransport execute: age
smoothSolver:  Solving for age, Initial residual = 0.0182704, Final residual = 0.00164959, No Iterations 6

Time = 39

smoothSolver:  Solving for Ux, Initial residual = 0.0199491, Final residual = 0.00150433, No Iterations 6
smoothSolver:  Solving for Uy, Initial residual = 0.00917096, Final residual = 0.000667812, No Iterations 6
GAMG:  Solving for p, Initial residual = 0.00931234, Final residual = 0.000650257, No Iterations 3
time step continuity errors : sum local = 0.00161523, global = 8.91054e-05, cumulative = 0.0101872
smoothSolver:  Solving for omega, Initial residual = 0.00266885, Final residual = 0.00017922, No Iterations 6
smoothSolver:  Solving for k, Initial residual = 0.0287843, Final residual = 0.00234647, No Iterations 6
ExecutionTime = 0.49 s  ClockTime = 0 s

scalarTransport execute: age
smoothSolver:  Solving for age, Initial residual = 0.0183917, Final residual = 0.00156753, No Iterations 7

Time = 40

smoothSolver:  Solving for Ux, Initial residual = 0.0200266, Final residual = 0.00150317, No Iterations 6
smoothSolver:  Solving for Uy, Initial residual = 0.00907512, Final residual = 0.000661849, No Iterations 6
GAMG:  Solving for p, Initial residual = 0.00919999, Final residual = 0.000789249, No Iterations 2
time step continuity errors : sum local = 0.00195063, global = 7.84671e-05, cumulative = 0.0102656
smoothSolver:  Solving for omega, Initial residual = 0.00251593, Final residual = 0.000169344, No Iterations 6
smoothSolver:  Solving for k, Initial residual = 0.0278921, Final residual = 0.00227608, No Iterations 6
ExecutionTime = 0.5 s  ClockTime = 0 s

scalarTransport execute: age
smoothSolver:  Solving for age, Initial residual = 0.0182841, Final residual = 0.00157598, No Iterations 7

Time = 41

smoothSolver:  Solving for Ux, Initial residual = 0.0198125, Final residual = 0.00148876, No Iterations 6
smoothSolver:  Solving for Uy, Initial residual = 0.00876096, Final residual = 0.000645021, No Iterations 6
GAMG:  Solving for p, Initial residual = 0.00907166, Final residual = 0.000531423, No Iterations 3
time step continuity errors : sum local = 0.00131209, global = 7.97715e-05, cumulative = 0.0103454
smoothSolver:  Solving for omega, Initial residual = 0.00239555, Final residual = 0.000160501, No Iterations 6
smoothSolver:  Solving for k, Initial residual = 0.02706, Final residual = 0.00220998, No Iterations 6
ExecutionTime = 0.51 s  ClockTime = 0 s

scalarTransport execute: age
smoothSolver:  Solving for age, Initial residual = 0.0183201, Final residual = 0.00168635, No Iterations 7

Time = 42

smoothSolver:  Solving for Ux, Initial residual = 0.0196789, Final residual = 0.00146831, No Iterations 6
smoothSolver:  Solving for Uy, Initial residual = 0.00859138, Final residual = 0.000633279, No Iterations 6
GAMG:  Solving for p, Initial residual = 0.00878572, Final residual = 0.000853277, No Iterations 2
time step continuity errors : sum local = 0.00210715, global = 6.87604e-05, cumulative = 0.0104142
smoothSolver:  Solving for omega, Initial residual = 0.0022801, Final residual = 0.000152129, No Iterations 6
smoothSolver:  Solving for k, Initial residual = 0.0262771, Final residual = 0.00214746, No Iterations 6
ExecutionTime = 0.52 s  ClockTime = 0 s

scalarTransport execute: age
smoothSolver:  Solving for age, Initial residual = 0.018271, Final residual = 0.00173979, No Iterations 7

Time = 43

smoothSolver:  Solving for Ux, Initial residual = 0.0194333, Final residual = 0.00145054, No Iterations 6
smoothSolver:  Solving for Uy, Initial residual = 0.00840958, Final residual = 0.000622464, No Iterations 6
GAMG:  Solving for p, Initial residual = 0.00880571, Final residual = 0.000641344, No Iterations 3
time step continuity errors : sum local = 0.00158208, global = 8.0439e-05, cumulative = 0.0104946
smoothSolver:  Solving for omega, Initial residual = 0.00217563, Final residual = 0.000144219, No Iterations 6
smoothSolver:  Solving for k, Initial residual = 0.0255517, Final residual = 0.00208855, No Iterations 6
ExecutionTime = 0.54 s  ClockTime = 0 s

scalarTransport execute: age
smoothSolver:  Solving for age, Initial residual = 0.0183627, Final residual = 0.00179578, No Iterations 7

Time = 44

smoothSolver:  Solving for Ux, Initial residual = 0.0193465, Final residual = 0.00143187, No Iterations 6
smoothSolver:  Solving for Uy, Initial residual = 0.00841623, Final residual = 0.000626885, No Iterations 6
GAMG:  Solving for p, Initial residual = 0.00859953, Final residual = 0.000536801, No Iterations 3
time step continuity errors : sum local = 0.00132264, global = 7.38337e-05, cumulative = 0.0105684
smoothSolver:  Solving for omega, Initial residual = 0.00208322, Final residual = 0.000136805, No Iterations 6
smoothSolver:  Solving for k, Initial residual = 0.0248638, Final residual = 0.00203266, No Iterations 6
ExecutionTime = 0.55 s  ClockTime = 0 s

scalarTransport execute: age
smoothSolver:  Solving for age, Initial residual = 0.0185017, Final residual = 0.00160077, No Iterations 8

Time = 45

smoothSolver:  Solving for Ux, Initial residual = 0.0192238, Final residual = 0.00142309, No Iterations 6
smoothSolver:  Solving for Uy, Initial residual = 0.00836711, Final residual = 0.000625181, No Iterations 6
GAMG:  Solving for p, Initial residual = 0.00834015, Final residual = 0.000522097, No Iterations 3
time step continuity errors : sum local = 0.00128155, global = 6.71365e-05, cumulative = 0.0106356
smoothSolver:  Solving for omega, Initial residual = 0.00197866, Final residual = 0.000129854, No Iterations 6
smoothSolver:  Solving for k, Initial residual = 0.0242155, Final residual = 0.00197987, No Iterations 6
ExecutionTime = 0.56 s  ClockTime = 0 s

scalarTransport execute: age
smoothSolver:  Solving for age, Initial residual = 0.0184084, Final residual = 0.0016225, No Iterations 8

Time = 46

smoothSolver:  Solving for Ux, Initial residual = 0.0190637, Final residual = 0.00141165, No Iterations 6
smoothSolver:  Solving for Uy, Initial residual = 0.00829737, Final residual = 0.0006234, No Iterations 6
GAMG:  Solving for p, Initial residual = 0.00811213, Final residual = 0.000513997, No Iterations 3
time step continuity errors : sum local = 0.00125833, global = 6.42556e-05, cumulative = 0.0106998
smoothSolver:  Solving for omega, Initial residual = 0.00188717, Final residual = 0.000123358, No Iterations 6
smoothSolver:  Solving for k, Initial residual = 0.0236039, Final residual = 0.00192981, No Iterations 6
ExecutionTime = 0.57 s  ClockTime = 0 s

scalarTransport execute: age
smoothSolver:  Solving for age, Initial residual = 0.0184746, Final residual = 0.00167514, No Iterations 8

Time = 47

smoothSolver:  Solving for Ux, Initial residual = 0.0188841, Final residual = 0.00139724, No Iterations 6
smoothSolver:  Solving for Uy, Initial residual = 0.00824734, Final residual = 0.00062291, No Iterations 6
GAMG:  Solving for p, Initial residual = 0.00788323, Final residual = 0.000526332, No Iterations 3
time step continuity errors : sum local = 0.0012851, global = 6.34701e-05, cumulative = 0.0107633
smoothSolver:  Solving for omega, Initial residual = 0.00180566, Final residual = 0.000117281, No Iterations 6
smoothSolver:  Solving for k, Initial residual = 0.0230253, Final residual = 0.00188225, No Iterations 6
ExecutionTime = 0.58 s  ClockTime = 0 s

scalarTransport execute: age
smoothSolver:  Solving for age, Initial residual = 0.0186831, Final residual = 0.00176668, No Iterations 8

Time = 48

smoothSolver:  Solving for Ux, Initial residual = 0.0186955, Final residual = 0.00138208, No Iterations 6
smoothSolver:  Solving for Uy, Initial residual = 0.00823127, Final residual = 0.000625592, No Iterations 6
GAMG:  Solving for p, Initial residual = 0.0076581, Final residual = 0.000526564, No Iterations 3
time step continuity errors : sum local = 0.00128192, global = 6.46042e-05, cumulative = 0.0108279
smoothSolver:  Solving for omega, Initial residual = 0.00172845, Final residual = 0.000171863, No Iterations 5
smoothSolver:  Solving for k, Initial residual = 0.0224903, Final residual = 0.00183802, No Iterations 6
ExecutionTime = 0.59 s  ClockTime = 0 s

scalarTransport execute: age
smoothSolver:  Solving for age, Initial residual = 0.0188598, Final residual = 0.00183341, No Iterations 8

Time = 49

smoothSolver:  Solving for Ux, Initial residual = 0.0185092, Final residual = 0.00136728, No Iterations 6
smoothSolver:  Solving for Uy, Initial residual = 0.00823303, Final residual = 0.000629191, No Iterations 6
GAMG:  Solving for p, Initial residual = 0.00741638, Final residual = 0.000523183, No Iterations 3
time step continuity errors : sum local = 0.00126984, global = 6.61545e-05, cumulative = 0.0108941
smoothSolver:  Solving for omega, Initial residual = 0.00166284, Final residual = 0.000164272, No Iterations 5
smoothSolver:  Solving for k, Initial residual = 0.021988, Final residual = 0.00179622, No Iterations 6
ExecutionTime = 0.61 s  ClockTime = 0 s

scalarTransport execute: age
smoothSolver:  Solving for age, Initial residual = 0.0189601, Final residual = 0.00188391, No Iterations 8

Time = 50

smoothSolver:  Solving for Ux, Initial residual = 0.0183128, Final residual = 0.00135273, No Iterations 6
smoothSolver:  Solving for Uy, Initial residual = 0.00824822, Final residual = 0.000633701, No Iterations 6
GAMG:  Solving for p, Initial residual = 0.00717998, Final residual = 0.000517401, No Iterations 3
time step continuity errors : sum local = 0.00125176, global = 6.98892e-05, cumulative = 0.0109639
smoothSolver:  Solving for omega, Initial residual = 0.0015996, Final residual = 0.00015712, No Iterations 5
smoothSolver:  Solving for k, Initial residual = 0.0215063, Final residual = 0.00175603, No Iterations 6
ExecutionTime = 0.62 s  ClockTime = 0 s

scalarTransport execute: age
smoothSolver:  Solving for age, Initial residual = 0.0190454, Final residual = 0.00163063, No Iterations 9

Time = 51

smoothSolver:  Solving for Ux, Initial residual = 0.0180956, Final residual = 0.00133725, No Iterations 6
smoothSolver:  Solving for Uy, Initial residual = 0.00827337, Final residual = 0.000638979, No Iterations 6
GAMG:  Solving for p, Initial residual = 0.00695474, Final residual = 0.000503213, No Iterations 3
time step continuity errors : sum local = 0.00121376, global = 7.22579e-05, cumulative = 0.0110362
smoothSolver:  Solving for omega, Initial residual = 0.00154118, Final residual = 0.000150395, No Iterations 5
smoothSolver:  Solving for k, Initial residual = 0.0210447, Final residual = 0.00171741, No Iterations 6
ExecutionTime = 0.63 s  ClockTime = 0 s

scalarTransport execute: age
smoothSolver:  Solving for age, Initial residual = 0.0189254, Final residual = 0.0018739, No Iterations 8

Time = 52

smoothSolver:  Solving for Ux, Initial residual = 0.0178869, Final residual = 0.00132286, No Iterations 6
smoothSolver:  Solving for Uy, Initial residual = 0.00828529, Final residual = 0.000642835, No Iterations 6
GAMG:  Solving for p, Initial residual = 0.00675725, Final residual = 0.000503454, No Iterations 3
time step continuity errors : sum local = 0.00120995, global = 7.32432e-05, cumulative = 0.0111094
smoothSolver:  Solving for omega, Initial residual = 0.00148068, Final residual = 0.000143898, No Iterations 5
smoothSolver:  Solving for k, Initial residual = 0.0206012, Final residual = 0.00168015, No Iterations 6
ExecutionTime = 0.64 s  ClockTime = 0 s

scalarTransport execute: age
smoothSolver:  Solving for age, Initial residual = 0.0189405, Final residual = 0.00185939, No Iterations 8

Time = 53

smoothSolver:  Solving for Ux, Initial residual = 0.0176472, Final residual = 0.00130638, No Iterations 6
smoothSolver:  Solving for Uy, Initial residual = 0.00831182, Final residual = 0.000648399, No Iterations 6
GAMG:  Solving for p, Initial residual = 0.00660528, Final residual = 0.000499922, No Iterations 3
time step continuity errors : sum local = 0.00119767, global = 7.58118e-05, cumulative = 0.0111853
smoothSolver:  Solving for omega, Initial residual = 0.00143527, Final residual = 0.000137621, No Iterations 5
smoothSolver:  Solving for k, Initial residual = 0.020176, Final residual = 0.00164425, No Iterations 6
ExecutionTime = 0.65 s  ClockTime = 0 s

scalarTransport execute: age
smoothSolver:  Solving for age, Initial residual = 0.0188835, Final residual = 0.00181769, No Iterations 8

Time = 54

smoothSolver:  Solving for Ux, Initial residual = 0.0174115, Final residual = 0.00129003, No Iterations 6
smoothSolver:  Solving for Uy, Initial residual = 0.00833873, Final residual = 0.000653318, No Iterations 6
GAMG:  Solving for p, Initial residual = 0.00646934, Final residual = 0.00050338, No Iterations 3
time step continuity errors : sum local = 0.00120193, global = 7.75135e-05, cumulative = 0.0112628
smoothSolver:  Solving for omega, Initial residual = 0.00138913, Final residual = 0.00013174, No Iterations 5
smoothSolver:  Solving for k, Initial residual = 0.0197666, Final residual = 0.0016095, No Iterations 6
ExecutionTime = 0.67 s  ClockTime = 0 s

scalarTransport execute: age
smoothSolver:  Solving for age, Initial residual = 0.0187754, Final residual = 0.00176382, No Iterations 8

Time = 55

smoothSolver:  Solving for Ux, Initial residual = 0.0171849, Final residual = 0.00127344, No Iterations 6
smoothSolver:  Solving for Uy, Initial residual = 0.0083689, Final residual = 0.000657641, No Iterations 6
GAMG:  Solving for p, Initial residual = 0.00637461, Final residual = 0.000505319, No Iterations 3
time step continuity errors : sum local = 0.0012025, global = 7.80325e-05, cumulative = 0.0113408
smoothSolver:  Solving for omega, Initial residual = 0.00134264, Final residual = 0.000126247, No Iterations 5
smoothSolver:  Solving for k, Initial residual = 0.0193683, Final residual = 0.00157569, No Iterations 6
ExecutionTime = 0.68 s  ClockTime = 0 s

scalarTransport execute: age
smoothSolver:  Solving for age, Initial residual = 0.0187027, Final residual = 0.00172268, No Iterations 8

Time = 56

smoothSolver:  Solving for Ux, Initial residual = 0.0169722, Final residual = 0.001257, No Iterations 6
smoothSolver:  Solving for Uy, Initial residual = 0.00839382, Final residual = 0.00066098, No Iterations 6
GAMG:  Solving for p, Initial residual = 0.00633901, Final residual = 0.000509303, No Iterations 3
time step continuity errors : sum local = 0.00120708, global = 7.8154e-05, cumulative = 0.011419
smoothSolver:  Solving for omega, Initial residual = 0.00129818, Final residual = 0.000120828, No Iterations 5
smoothSolver:  Solving for k, Initial residual = 0.0189832, Final residual = 0.00154292, No Iterations 6
ExecutionTime = 0.69 s  ClockTime = 0 s

scalarTransport execute: age
smoothSolver:  Solving for age, Initial residual = 0.0186944, Final residual = 0.00168843, No Iterations 8

Time = 57

smoothSolver:  Solving for Ux, Initial residual = 0.0167759, Final residual = 0.0012409, No Iterations 6
smoothSolver:  Solving for Uy, Initial residual = 0.00841069, Final residual = 0.000662943, No Iterations 6
GAMG:  Solving for p, Initial residual = 0.00637833, Final residual = 0.000513636, No Iterations 3
time step continuity errors : sum local = 0.00121298, global = 7.7662e-05, cumulative = 0.0114966
smoothSolver:  Solving for omega, Initial residual = 0.00126161, Final residual = 0.000115838, No Iterations 5
smoothSolver:  Solving for k, Initial residual = 0.0186086, Final residual = 0.001511, No Iterations 6
ExecutionTime = 0.7 s  ClockTime = 0 s

scalarTransport execute: age
smoothSolver:  Solving for age, Initial residual = 0.01878, Final residual = 0.00170971, No Iterations 8

Time = 58

smoothSolver:  Solving for Ux, Initial residual = 0.0165948, Final residual = 0.00122539, No Iterations 6
smoothSolver:  Solving for Uy, Initial residual = 0.00841451, Final residual = 0.000663683, No Iterations 6
GAMG:  Solving for p, Initial residual = 0.00638925, Final residual = 0.000516555, No Iterations 3
time step continuity errors : sum local = 0.00121475, global = 7.68338e-05, cumulative = 0.0115735
smoothSolver:  Solving for omega, Initial residual = 0.00122448, Final residual = 0.000111266, No Iterations 5
smoothSolver:  Solving for k, Initial residual = 0.0182428, Final residual = 0.00147981, No Iterations 6
ExecutionTime = 0.71 s  ClockTime = 0 s

scalarTransport execute: age
smoothSolver:  Solving for age, Initial residual = 0.018963, Final residual = 0.00178284, No Iterations 8

Time = 59

smoothSolver:  Solving for Ux, Initial residual = 0.0164218, Final residual = 0.00121049, No Iterations 6
smoothSolver:  Solving for Uy, Initial residual = 0.00840478, Final residual = 0.000662975, No Iterations 6
GAMG:  Solving for p, Initial residual = 0.00637403, Final residual = 0.000520652, No Iterations 3
time step continuity errors : sum local = 0.00121823, global = 7.75705e-05, cumulative = 0.011651
smoothSolver:  Solving for omega, Initial residual = 0.00119235, Final residual = 0.000106955, No Iterations 5
smoothSolver:  Solving for k, Initial residual = 0.0178849, Final residual = 0.00144924, No Iterations 6
ExecutionTime = 0.72 s  ClockTime = 0 s

scalarTransport execute: age
smoothSolver:  Solving for age, Initial residual = 0.0190959, Final residual = 0.00185463, No Iterations 8

Time = 60

smoothSolver:  Solving for Ux, Initial residual = 0.0162527, Final residual = 0.00119614, No Iterations 6
smoothSolver:  Solving for Uy, Initial residual = 0.00838233, Final residual = 0.00066096, No Iterations 6
GAMG:  Solving for p, Initial residual = 0.00638656, Final residual = 0.000516944, No Iterations 3
time step continuity errors : sum local = 0.00120394, global = 7.42454e-05, cumulative = 0.0117253
smoothSolver:  Solving for omega, Initial residual = 0.00116301, Final residual = 0.000102856, No Iterations 5
smoothSolver:  Solving for k, Initial residual = 0.0175351, Final residual = 0.00141932, No Iterations 6
ExecutionTime = 0.74 s  ClockTime = 0 s

scalarTransport execute: age
smoothSolver:  Solving for age, Initial residual = 0.0192145, Final residual = 0.00165464, No Iterations 9

Time = 61

smoothSolver:  Solving for Ux, Initial residual = 0.016099, Final residual = 0.00118325, No Iterations 6
smoothSolver:  Solving for Uy, Initial residual = 0.00832774, Final residual = 0.000655863, No Iterations 6
GAMG:  Solving for p, Initial residual = 0.00640195, Final residual = 0.000528386, No Iterations 3
time step continuity errors : sum local = 0.00122449, global = 6.75388e-05, cumulative = 0.0117928
smoothSolver:  Solving for omega, Initial residual = 0.00112923, Final residual = 9.88418e-05, No Iterations 5
smoothSolver:  Solving for k, Initial residual = 0.01719, Final residual = 0.00138996, No Iterations 6
ExecutionTime = 0.75 s  ClockTime = 0 s

scalarTransport execute: age
smoothSolver:  Solving for age, Initial residual = 0.0191854, Final residual = 0.00168719, No Iterations 9

Time = 62

smoothSolver:  Solving for Ux, Initial residual = 0.0159409, Final residual = 0.00117014, No Iterations 6
smoothSolver:  Solving for Uy, Initial residual = 0.00826526, Final residual = 0.0006506, No Iterations 6
GAMG:  Solving for p, Initial residual = 0.00644049, Final residual = 0.000527457, No Iterations 3
time step continuity errors : sum local = 0.00121734, global = 6.33712e-05, cumulative = 0.0118562
smoothSolver:  Solving for omega, Initial residual = 0.00110091, Final residual = 9.51895e-05, No Iterations 5
smoothSolver:  Solving for k, Initial residual = 0.0168505, Final residual = 0.00136109, No Iterations 6
ExecutionTime = 0.76 s  ClockTime = 0 s

scalarTransport execute: age
smoothSolver:  Solving for age, Initial residual = 0.0191042, Final residual = 0.00173101, No Iterations 9

Time = 63

smoothSolver:  Solving for Ux, Initial residual = 0.0157687, Final residual = 0.00115678, No Iterations 6
smoothSolver:  Solving for Uy, Initial residual = 0.0081902, Final residual = 0.00064413, No Iterations 6
GAMG:  Solving for p, Initial residual = 0.00646715, Final residual = 0.000538303, No Iterations 3
time step continuity errors : sum local = 0.00123782, global = 6.19894e-05, cumulative = 0.0119182
smoothSolver:  Solving for omega, Initial residual = 0.00107411, Final residual = 9.18029e-05, No Iterations 5
smoothSolver:  Solving for k, Initial residual = 0.0165176, Final residual = 0.00133268, No Iterations 6
ExecutionTime = 0.77 s  ClockTime = 0 s

scalarTransport execute: age
smoothSolver:  Solving for age, Initial residual = 0.0189389, Final residual = 0.00174516, No Iterations 9

Time = 64

smoothSolver:  Solving for Ux, Initial residual = 0.0156017, Final residual = 0.00114335, No Iterations 6
smoothSolver:  Solving for Uy, Initial residual = 0.00810578, Final residual = 0.000636923, No Iterations 6
GAMG:  Solving for p, Initial residual = 0.00653039, Final residual = 0.000536904, No Iterations 3
time step continuity errors : sum local = 0.00123073, global = 6.13349e-05, cumulative = 0.0119795
smoothSolver:  Solving for omega, Initial residual = 0.0010509, Final residual = 8.86693e-05, No Iterations 5
smoothSolver:  Solving for k, Initial residual = 0.0161889, Final residual = 0.00130461, No Iterations 6
ExecutionTime = 0.78 s  ClockTime = 0 s

scalarTransport execute: age
smoothSolver:  Solving for age, Initial residual = 0.0187651, Final residual = 0.00175943, No Iterations 9

Time = 65

smoothSolver:  Solving for Ux, Initial residual = 0.0154318, Final residual = 0.00112994, No Iterations 6
smoothSolver:  Solving for Uy, Initial residual = 0.00800104, Final residual = 0.000628076, No Iterations 6
GAMG:  Solving for p, Initial residual = 0.00658075, Final residual = 0.000542937, No Iterations 3
time step continuity errors : sum local = 0.00124056, global = 6.14078e-05, cumulative = 0.0120409
smoothSolver:  Solving for omega, Initial residual = 0.00102805, Final residual = 8.57381e-05, No Iterations 5
smoothSolver:  Solving for k, Initial residual = 0.0158649, Final residual = 0.0012769, No Iterations 6
ExecutionTime = 0.8 s  ClockTime = 0 s

scalarTransport execute: age
smoothSolver:  Solving for age, Initial residual = 0.0184992, Final residual = 0.00175768, No Iterations 9

Time = 66

smoothSolver:  Solving for Ux, Initial residual = 0.0152615, Final residual = 0.0011167, No Iterations 6
smoothSolver:  Solving for Uy, Initial residual = 0.00788149, Final residual = 0.000618006, No Iterations 6
GAMG:  Solving for p, Initial residual = 0.00665058, Final residual = 0.000538116, No Iterations 3
time step continuity errors : sum local = 0.00122541, global = 6.19865e-05, cumulative = 0.0121029
smoothSolver:  Solving for omega, Initial residual = 0.0010073, Final residual = 8.29963e-05, No Iterations 5
smoothSolver:  Solving for k, Initial residual = 0.015544, Final residual = 0.00124951, No Iterations 6
ExecutionTime = 0.81 s  ClockTime = 0 s

scalarTransport execute: age
smoothSolver:  Solving for age, Initial residual = 0.0183334, Final residual = 0.00175543, No Iterations 9

Time = 67

smoothSolver:  Solving for Ux, Initial residual = 0.0150871, Final residual = 0.00110354, No Iterations 6
smoothSolver:  Solving for Uy, Initial residual = 0.00774683, Final residual = 0.000606563, No Iterations 6
GAMG:  Solving for p, Initial residual = 0.00672116, Final residual = 0.000541322, No Iterations 3
time step continuity errors : sum local = 0.00122872, global = 6.27791e-05, cumulative = 0.0121657
smoothSolver:  Solving for omega, Initial residual = 0.000987932, Final residual = 8.04506e-05, No Iterations 5
smoothSolver:  Solving for k, Initial residual = 0.0152262, Final residual = 0.00122235, No Iterations 6
ExecutionTime = 0.82 s  ClockTime = 0 s

scalarTransport execute: age
smoothSolver:  Solving for age, Initial residual = 0.0178688, Final residual = 0.00173554, No Iterations 9

Time = 68

smoothSolver:  Solving for Ux, Initial residual = 0.014908, Final residual = 0.00109013, No Iterations 6
smoothSolver:  Solving for Uy, Initial residual = 0.00759855, Final residual = 0.000594218, No Iterations 6
GAMG:  Solving for p, Initial residual = 0.00679553, Final residual = 0.000546249, No Iterations 3
time step continuity errors : sum local = 0.00123604, global = 6.61867e-05, cumulative = 0.0122319
smoothSolver:  Solving for omega, Initial residual = 0.000969854, Final residual = 7.80706e-05, No Iterations 5
smoothSolver:  Solving for k, Initial residual = 0.0149098, Final residual = 0.0011953, No Iterations 6
ExecutionTime = 0.83 s  ClockTime = 0 s

scalarTransport execute: age
smoothSolver:  Solving for age, Initial residual = 0.0172629, Final residual = 0.00170251, No Iterations 9

Time = 69

smoothSolver:  Solving for Ux, Initial residual = 0.0147134, Final residual = 0.00107553, No Iterations 6
smoothSolver:  Solving for Uy, Initial residual = 0.00744732, Final residual = 0.000581843, No Iterations 6
GAMG:  Solving for p, Initial residual = 0.00681584, Final residual = 0.000537447, No Iterations 3
time step continuity errors : sum local = 0.00121287, global = 6.89614e-05, cumulative = 0.0123008
smoothSolver:  Solving for omega, Initial residual = 0.000953839, Final residual = 7.58107e-05, No Iterations 5
smoothSolver:  Solving for k, Initial residual = 0.0145953, Final residual = 0.00116847, No Iterations 6
ExecutionTime = 0.84 s  ClockTime = 0 s

scalarTransport execute: age
smoothSolver:  Solving for age, Initial residual = 0.0165398, Final residual = 0.00144857, No Iterations 10

Time = 70

smoothSolver:  Solving for Ux, Initial residual = 0.0145169, Final residual = 0.00106058, No Iterations 6
smoothSolver:  Solving for Uy, Initial residual = 0.00728025, Final residual = 0.000568368, No Iterations 6
GAMG:  Solving for p, Initial residual = 0.00688216, Final residual = 0.000528122, No Iterations 3
time step continuity errors : sum local = 0.00118814, global = 6.97919e-05, cumulative = 0.0123706
smoothSolver:  Solving for omega, Initial residual = 0.00093803, Final residual = 7.36456e-05, No Iterations 5
smoothSolver:  Solving for k, Initial residual = 0.0142837, Final residual = 0.00114177, No Iterations 6
ExecutionTime = 0.86 s  ClockTime = 0 s

scalarTransport execute: age
smoothSolver:  Solving for age, Initial residual = 0.0158723, Final residual = 0.00142538, No Iterations 10

Time = 71

smoothSolver:  Solving for Ux, Initial residual = 0.014314, Final residual = 0.00104492, No Iterations 6
smoothSolver:  Solving for Uy, Initial residual = 0.00711497, Final residual = 0.000554803, No Iterations 6
GAMG:  Solving for p, Initial residual = 0.00702215, Final residual = 0.000512754, No Iterations 3
time step continuity errors : sum local = 0.00115023, global = 6.92904e-05, cumulative = 0.0124399
smoothSolver:  Solving for omega, Initial residual = 0.000922099, Final residual = 7.15659e-05, No Iterations 5
smoothSolver:  Solving for k, Initial residual = 0.0139746, Final residual = 0.0011152, No Iterations 6
ExecutionTime = 0.87 s  ClockTime = 0 s

scalarTransport execute: age
smoothSolver:  Solving for age, Initial residual = 0.0150732, Final residual = 0.00139785, No Iterations 10

Time = 72

smoothSolver:  Solving for Ux, Initial residual = 0.0140955, Final residual = 0.00102831, No Iterations 6
smoothSolver:  Solving for Uy, Initial residual = 0.0069549, Final residual = 0.0005423, No Iterations 6
GAMG:  Solving for p, Initial residual = 0.00717179, Final residual = 0.000493148, No Iterations 3
time step continuity errors : sum local = 0.00110354, global = 6.80391e-05, cumulative = 0.0125079
smoothSolver:  Solving for omega, Initial residual = 0.000906198, Final residual = 6.95674e-05, No Iterations 5
smoothSolver:  Solving for k, Initial residual = 0.0136662, Final residual = 0.00108874, No Iterations 6
ExecutionTime = 0.88 s  ClockTime = 0 s

scalarTransport execute: age
smoothSolver:  Solving for age, Initial residual = 0.0143786, Final residual = 0.00136829, No Iterations 10

Time = 73

smoothSolver:  Solving for Ux, Initial residual = 0.0138659, Final residual = 0.00101076, No Iterations 6
smoothSolver:  Solving for Uy, Initial residual = 0.00681189, Final residual = 0.000531632, No Iterations 6
GAMG:  Solving for p, Initial residual = 0.00724781, Final residual = 0.000475705, No Iterations 3
time step continuity errors : sum local = 0.00106261, global = 6.65568e-05, cumulative = 0.0125745
smoothSolver:  Solving for omega, Initial residual = 0.000889994, Final residual = 6.76097e-05, No Iterations 5
smoothSolver:  Solving for k, Initial residual = 0.0133588, Final residual = 0.00106231, No Iterations 6
ExecutionTime = 0.89 s  ClockTime = 0 s

scalarTransport execute: age
smoothSolver:  Solving for age, Initial residual = 0.0137385, Final residual = 0.00133861, No Iterations 10

Time = 74

smoothSolver:  Solving for Ux, Initial residual = 0.0136281, Final residual = 0.000992632, No Iterations 6
smoothSolver:  Solving for Uy, Initial residual = 0.00669797, Final residual = 0.00052288, No Iterations 6
GAMG:  Solving for p, Initial residual = 0.00729748, Final residual = 0.00045607, No Iterations 3
time step continuity errors : sum local = 0.00101747, global = 6.17202e-05, cumulative = 0.0126362
smoothSolver:  Solving for omega, Initial residual = 0.000873979, Final residual = 6.56955e-05, No Iterations 5
smoothSolver:  Solving for k, Initial residual = 0.0130512, Final residual = 0.00103595, No Iterations 6
ExecutionTime = 0.9 s  ClockTime = 0 s

scalarTransport execute: age
smoothSolver:  Solving for age, Initial residual = 0.0131207, Final residual = 0.00115818, No Iterations 11

Time = 75

smoothSolver:  Solving for Ux, Initial residual = 0.0133816, Final residual = 0.000974001, No Iterations 6
smoothSolver:  Solving for Uy, Initial residual = 0.00659513, Final residual = 0.00051503, No Iterations 6
GAMG:  Solving for p, Initial residual = 0.00728865, Final residual = 0.000439845, No Iterations 3
time step continuity errors : sum local = 0.000980742, global = 5.95845e-05, cumulative = 0.0126958
smoothSolver:  Solving for omega, Initial residual = 0.0008582, Final residual = 6.38163e-05, No Iterations 5
smoothSolver:  Solving for k, Initial residual = 0.012745, Final residual = 0.00100966, No Iterations 6
ExecutionTime = 0.92 s  ClockTime = 0 s

scalarTransport execute: age
smoothSolver:  Solving for age, Initial residual = 0.0125662, Final residual = 0.00113513, No Iterations 11

Time = 76

smoothSolver:  Solving for Ux, Initial residual = 0.0131274, Final residual = 0.000954653, No Iterations 6
smoothSolver:  Solving for Uy, Initial residual = 0.00650489, Final residual = 0.000508067, No Iterations 6
GAMG:  Solving for p, Initial residual = 0.00724403, Final residual = 0.000424826, No Iterations 3
time step continuity errors : sum local = 0.000947211, global = 5.76579e-05, cumulative = 0.0127535
smoothSolver:  Solving for omega, Initial residual = 0.000842659, Final residual = 6.19601e-05, No Iterations 5
smoothSolver:  Solving for k, Initial residual = 0.0124392, Final residual = 0.000983469, No Iterations 6
ExecutionTime = 0.93 s  ClockTime = 0 s

scalarTransport execute: age
smoothSolver:  Solving for age, Initial residual = 0.0120648, Final residual = 0.00111544, No Iterations 11

Time = 77

smoothSolver:  Solving for Ux, Initial residual = 0.0128622, Final residual = 0.00093477, No Iterations 6
smoothSolver:  Solving for Uy, Initial residual = 0.00642228, Final residual = 0.000501504, No Iterations 6
GAMG:  Solving for p, Initial residual = 0.0071465, Final residual = 0.00041611, No Iterations 3
time step continuity errors : sum local = 0.000927058, global = 5.62589e-05, cumulative = 0.0128097
smoothSolver:  Solving for omega, Initial residual = 0.000826275, Final residual = 6.01187e-05, No Iterations 5
smoothSolver:  Solving for k, Initial residual = 0.0121347, Final residual = 0.000957448, No Iterations 6
ExecutionTime = 0.94 s  ClockTime = 1 s

scalarTransport execute: age
smoothSolver:  Solving for age, Initial residual = 0.0116016, Final residual = 0.00109792, No Iterations 11

Time = 78

smoothSolver:  Solving for Ux, Initial residual = 0.0125921, Final residual = 0.000914433, No Iterations 6
smoothSolver:  Solving for Uy, Initial residual = 0.00634097, Final residual = 0.000495236, No Iterations 6
GAMG:  Solving for p, Initial residual = 0.00701103, Final residual = 0.000408188, No Iterations 3
time step continuity errors : sum local = 0.000908815, global = 5.48448e-05, cumulative = 0.0128646
smoothSolver:  Solving for omega, Initial residual = 0.000809976, Final residual = 5.82678e-05, No Iterations 5
smoothSolver:  Solving for k, Initial residual = 0.0118321, Final residual = 0.00093161, No Iterations 6
ExecutionTime = 0.95 s  ClockTime = 1 s

scalarTransport execute: age
smoothSolver:  Solving for age, Initial residual = 0.0111867, Final residual = 0.00108582, No Iterations 11

Time = 79

smoothSolver:  Solving for Ux, Initial residual = 0.01232, Final residual = 0.000893599, No Iterations 6
smoothSolver:  Solving for Uy, Initial residual = 0.00626056, Final residual = 0.00048894, No Iterations 6
GAMG:  Solving for p, Initial residual = 0.00686918, Final residual = 0.00040369, No Iterations 3
time step continuity errors : sum local = 0.000898146, global = 5.37642e-05, cumulative = 0.0129183
smoothSolver:  Solving for omega, Initial residual = 0.000791987, Final residual = 5.64663e-05, No Iterations 5
smoothSolver:  Solving for k, Initial residual = 0.0115325, Final residual = 0.000906016, No Iterations 6
ExecutionTime = 0.97 s  ClockTime = 1 s

scalarTransport execute: age
smoothSolver:  Solving for age, Initial residual = 0.0108334, Final residual = 0.00107884, No Iterations 11

Time = 80

smoothSolver:  Solving for Ux, Initial residual = 0.0120456, Final residual = 0.000872617, No Iterations 6
smoothSolver:  Solving for Uy, Initial residual = 0.00618127, Final residual = 0.000482352, No Iterations 6
GAMG:  Solving for p, Initial residual = 0.00673767, Final residual = 0.000398428, No Iterations 3
time step continuity errors : sum local = 0.000885622, global = 5.22523e-05, cumulative = 0.0129706
smoothSolver:  Solving for omega, Initial residual = 0.000775997, Final residual = 5.46829e-05, No Iterations 5
smoothSolver:  Solving for k, Initial residual = 0.0112368, Final residual = 0.000880673, No Iterations 6
ExecutionTime = 0.98 s  ClockTime = 1 s

scalarTransport execute: age
smoothSolver:  Solving for age, Initial residual = 0.0105189, Final residual = 0.000947927, No Iterations 12

Time = 81

smoothSolver:  Solving for Ux, Initial residual = 0.0117707, Final residual = 0.000851257, No Iterations 6
smoothSolver:  Solving for Uy, Initial residual = 0.0061001, Final residual = 0.000475321, No Iterations 6
GAMG:  Solving for p, Initial residual = 0.00659446, Final residual = 0.000395402, No Iterations 3
time step continuity errors : sum local = 0.00087805, global = 5.02863e-05, cumulative = 0.0130209
smoothSolver:  Solving for omega, Initial residual = 0.000759271, Final residual = 5.29261e-05, No Iterations 5
smoothSolver:  Solving for k, Initial residual = 0.0109451, Final residual = 0.000855628, No Iterations 6
ExecutionTime = 0.99 s  ClockTime = 1 s

scalarTransport execute: age
smoothSolver:  Solving for age, Initial residual = 0.010203, Final residual = 0.000941459, No Iterations 12

Time = 82

smoothSolver:  Solving for Ux, Initial residual = 0.011494, Final residual = 0.000829561, No Iterations 6
smoothSolver:  Solving for Uy, Initial residual = 0.00602033, Final residual = 0.000467905, No Iterations 6
GAMG:  Solving for p, Initial residual = 0.00644421, Final residual = 0.000393272, No Iterations 3
time step continuity errors : sum local = 0.000872474, global = 4.77489e-05, cumulative = 0.0130686
smoothSolver:  Solving for omega, Initial residual = 0.000742528, Final residual = 5.11841e-05, No Iterations 5
smoothSolver:  Solving for k, Initial residual = 0.0106583, Final residual = 0.000830955, No Iterations 6
ExecutionTime = 1 s  ClockTime = 1 s

scalarTransport execute: age
smoothSolver:  Solving for age, Initial residual = 0.00992564, Final residual = 0.000933775, No Iterations 12

Time = 83

smoothSolver:  Solving for Ux, Initial residual = 0.0112125, Final residual = 0.00080778, No Iterations 6
smoothSolver:  Solving for Uy, Initial residual = 0.00593474, Final residual = 0.000460093, No Iterations 6
GAMG:  Solving for p, Initial residual = 0.00630189, Final residual = 0.000392448, No Iterations 3
time step continuity errors : sum local = 0.000869489, global = 4.46055e-05, cumulative = 0.0131132
smoothSolver:  Solving for omega, Initial residual = 0.000725642, Final residual = 4.94857e-05, No Iterations 5
smoothSolver:  Solving for k, Initial residual = 0.0103762, Final residual = 0.000806665, No Iterations 6
ExecutionTime = 1.01 s  ClockTime = 1 s

scalarTransport execute: age
smoothSolver:  Solving for age, Initial residual = 0.00966004, Final residual = 0.000924859, No Iterations 12

Time = 84

smoothSolver:  Solving for Ux, Initial residual = 0.0109256, Final residual = 0.000785567, No Iterations 6
smoothSolver:  Solving for Uy, Initial residual = 0.00584953, Final residual = 0.000451913, No Iterations 6
GAMG:  Solving for p, Initial residual = 0.00617015, Final residual = 0.000377118, No Iterations 3
time step continuity errors : sum local = 0.000834264, global = 4.05694e-05, cumulative = 0.0131538
smoothSolver:  Solving for omega, Initial residual = 0.000710358, Final residual = 4.78167e-05, No Iterations 5
smoothSolver:  Solving for k, Initial residual = 0.0101, Final residual = 0.000782738, No Iterations 6
ExecutionTime = 1.03 s  ClockTime = 1 s

scalarTransport execute: age
smoothSolver:  Solving for age, Initial residual = 0.00940763, Final residual = 0.000914384, No Iterations 12

Time = 85

smoothSolver:  Solving for Ux, Initial residual = 0.0106414, Final residual = 0.000763346, No Iterations 6
smoothSolver:  Solving for Uy, Initial residual = 0.00575671, Final residual = 0.000443073, No Iterations 6
GAMG:  Solving for p, Initial residual = 0.0060669, Final residual = 0.00038481, No Iterations 3
time step continuity errors : sum local = 0.000849734, global = 3.65441e-05, cumulative = 0.0131903
smoothSolver:  Solving for omega, Initial residual = 0.000695166, Final residual = 4.6203e-05, No Iterations 5
smoothSolver:  Solving for k, Initial residual = 0.00982721, Final residual = 0.000759113, No Iterations 6
ExecutionTime = 1.04 s  ClockTime = 1 s

scalarTransport execute: age
smoothSolver:  Solving for age, Initial residual = 0.00916855, Final residual = 0.000902924, No Iterations 12

Time = 86

smoothSolver:  Solving for Ux, Initial residual = 0.0103422, Final residual = 0.000740159, No Iterations 6
smoothSolver:  Solving for Uy, Initial residual = 0.00567295, Final residual = 0.00043482, No Iterations 6
GAMG:  Solving for p, Initial residual = 0.00602232, Final residual = 0.000377433, No Iterations 3
time step continuity errors : sum local = 0.000832131, global = 3.12804e-05, cumulative = 0.0132216
smoothSolver:  Solving for omega, Initial residual = 0.000680635, Final residual = 4.46462e-05, No Iterations 5
smoothSolver:  Solving for k, Initial residual = 0.00956001, Final residual = 0.000735878, No Iterations 6
ExecutionTime = 1.05 s  ClockTime = 1 s

scalarTransport execute: age
smoothSolver:  Solving for age, Initial residual = 0.00893624, Final residual = 0.000890184, No Iterations 12

Time = 87

smoothSolver:  Solving for Ux, Initial residual = 0.0100477, Final residual = 0.000717181, No Iterations 6
smoothSolver:  Solving for Uy, Initial residual = 0.00558234, Final residual = 0.000425924, No Iterations 6
GAMG:  Solving for p, Initial residual = 0.0060367, Final residual = 0.000377776, No Iterations 3
time step continuity errors : sum local = 0.000831257, global = 2.7309e-05, cumulative = 0.0132489
smoothSolver:  Solving for omega, Initial residual = 0.000666659, Final residual = 4.3143e-05, No Iterations 5
smoothSolver:  Solving for k, Initial residual = 0.00929849, Final residual = 0.000713013, No Iterations 6
ExecutionTime = 1.06 s  ClockTime = 1 s

scalarTransport execute: age
smoothSolver:  Solving for age, Initial residual = 0.00870791, Final residual = 0.000769263, No Iterations 13

Time = 88

smoothSolver:  Solving for Ux, Initial residual = 0.00975043, Final residual = 0.000693647, No Iterations 6
smoothSolver:  Solving for Uy, Initial residual = 0.00549993, Final residual = 0.000417522, No Iterations 6
GAMG:  Solving for p, Initial residual = 0.00609224, Final residual = 0.000379319, No Iterations 3
time step continuity errors : sum local = 0.000833103, global = 2.30088e-05, cumulative = 0.0132719
smoothSolver:  Solving for omega, Initial residual = 0.000655809, Final residual = 4.17302e-05, No Iterations 5
smoothSolver:  Solving for k, Initial residual = 0.00904189, Final residual = 0.000690475, No Iterations 6
ExecutionTime = 1.07 s  ClockTime = 1 s

scalarTransport execute: age
smoothSolver:  Solving for age, Initial residual = 0.00847439, Final residual = 0.0007528, No Iterations 13

Time = 89

smoothSolver:  Solving for Ux, Initial residual = 0.00945385, Final residual = 0.000670035, No Iterations 6
smoothSolver:  Solving for Uy, Initial residual = 0.00542024, Final residual = 0.000409355, No Iterations 6
GAMG:  Solving for p, Initial residual = 0.0061712, Final residual = 0.000380926, No Iterations 3
time step continuity errors : sum local = 0.000834825, global = 1.92446e-05, cumulative = 0.0132912
smoothSolver:  Solving for omega, Initial residual = 0.00064664, Final residual = 4.03854e-05, No Iterations 5
smoothSolver:  Solving for k, Initial residual = 0.00879012, Final residual = 0.000668228, No Iterations 6
ExecutionTime = 1.09 s  ClockTime = 1 s

scalarTransport execute: age
smoothSolver:  Solving for age, Initial residual = 0.00823589, Final residual = 0.000737152, No Iterations 13

Time = 90

smoothSolver:  Solving for Ux, Initial residual = 0.00915744, Final residual = 0.000646016, No Iterations 6
smoothSolver:  Solving for Uy, Initial residual = 0.00534865, Final residual = 0.000401655, No Iterations 6
GAMG:  Solving for p, Initial residual = 0.00627703, Final residual = 0.000390736, No Iterations 3
time step continuity errors : sum local = 0.000854093, global = 1.58839e-05, cumulative = 0.0133071
smoothSolver:  Solving for omega, Initial residual = 0.000640576, Final residual = 6.39524e-05, No Iterations 4
smoothSolver:  Solving for k, Initial residual = 0.00854559, Final residual = 0.000646409, No Iterations 6
ExecutionTime = 1.1 s  ClockTime = 1 s

scalarTransport execute: age
smoothSolver:  Solving for age, Initial residual = 0.00803192, Final residual = 0.000719741, No Iterations 13

Time = 91

smoothSolver:  Solving for Ux, Initial residual = 0.00885218, Final residual = 0.000621951, No Iterations 6
smoothSolver:  Solving for Uy, Initial residual = 0.00528971, Final residual = 0.000394698, No Iterations 6
GAMG:  Solving for p, Initial residual = 0.00627936, Final residual = 0.000397216, No Iterations 3
time step continuity errors : sum local = 0.000864794, global = 1.27296e-05, cumulative = 0.0133198
smoothSolver:  Solving for omega, Initial residual = 0.000642412, Final residual = 6.26911e-05, No Iterations 4
smoothSolver:  Solving for k, Initial residual = 0.00830648, Final residual = 0.000624906, No Iterations 6
ExecutionTime = 1.11 s  ClockTime = 1 s

scalarTransport execute: age
smoothSolver:  Solving for age, Initial residual = 0.00784675, Final residual = 0.000708776, No Iterations 13

Time = 92

smoothSolver:  Solving for Ux, Initial residual = 0.00854721, Final residual = 0.000597756, No Iterations 6
smoothSolver:  Solving for Uy, Initial residual = 0.00523906, Final residual = 0.000388284, No Iterations 6
GAMG:  Solving for p, Initial residual = 0.00625221, Final residual = 0.00039724, No Iterations 3
time step continuity errors : sum local = 0.000861197, global = 9.80467e-06, cumulative = 0.0133296
smoothSolver:  Solving for omega, Initial residual = 0.000643658, Final residual = 6.13135e-05, No Iterations 4
smoothSolver:  Solving for k, Initial residual = 0.00807285, Final residual = 0.000603741, No Iterations 6
ExecutionTime = 1.11 s  ClockTime = 1 s

scalarTransport execute: age
smoothSolver:  Solving for age, Initial residual = 0.00764727, Final residual = 0.000684767, No Iterations 13

Time = 93

smoothSolver:  Solving for Ux, Initial residual = 0.00824039, Final residual = 0.000573804, No Iterations 6
smoothSolver:  Solving for Uy, Initial residual = 0.00519694, Final residual = 0.000382642, No Iterations 6
GAMG:  Solving for p, Initial residual = 0.00624911, Final residual = 0.000396293, No Iterations 3
time step continuity errors : sum local = 0.000855295, global = 6.70639e-06, cumulative = 0.0133363
smoothSolver:  Solving for omega, Initial residual = 0.000645783, Final residual = 5.98426e-05, No Iterations 4
smoothSolver:  Solving for k, Initial residual = 0.00784367, Final residual = 0.000582835, No Iterations 6
ExecutionTime = 1.12 s  ClockTime = 1 s

scalarTransport execute: age
smoothSolver:  Solving for age, Initial residual = 0.00747741, Final residual = 0.000672721, No Iterations 13

Time = 94

smoothSolver:  Solving for Ux, Initial residual = 0.00792671, Final residual = 0.000549692, No Iterations 6
smoothSolver:  Solving for Uy, Initial residual = 0.00516944, Final residual = 0.000377902, No Iterations 6
GAMG:  Solving for p, Initial residual = 0.00622348, Final residual = 0.00039271, No Iterations 3
time step continuity errors : sum local = 0.000843441, global = 3.33905e-06, cumulative = 0.0133396
smoothSolver:  Solving for omega, Initial residual = 0.000645246, Final residual = 5.8296e-05, No Iterations 4
smoothSolver:  Solving for k, Initial residual = 0.00761972, Final residual = 0.000562254, No Iterations 6
ExecutionTime = 1.15 s  ClockTime = 1 s

scalarTransport execute: age
smoothSolver:  Solving for age, Initial residual = 0.0072573, Final residual = 0.000650476, No Iterations 13

Time = 95

smoothSolver:  Solving for Ux, Initial residual = 0.00761035, Final residual = 0.000525545, No Iterations 6
smoothSolver:  Solving for Uy, Initial residual = 0.00515007, Final residual = 0.000373521, No Iterations 6
GAMG:  Solving for p, Initial residual = 0.00616998, Final residual = 0.000388403, No Iterations 3
time step continuity errors : sum local = 0.000829854, global = 3.44204e-07, cumulative = 0.01334
smoothSolver:  Solving for omega, Initial residual = 0.000644712, Final residual = 5.67429e-05, No Iterations 4
smoothSolver:  Solving for k, Initial residual = 0.00739981, Final residual = 0.000541959, No Iterations 6
ExecutionTime = 1.16 s  ClockTime = 1 s

scalarTransport execute: age
smoothSolver:  Solving for age, Initial residual = 0.00704889, Final residual = 0.000627241, No Iterations 13

Time = 96

smoothSolver:  Solving for Ux, Initial residual = 0.00729073, Final residual = 0.000501849, No Iterations 6
smoothSolver:  Solving for Uy, Initial residual = 0.00513482, Final residual = 0.000369311, No Iterations 6
[...]

Time = 598

smoothSolver:  Solving for Ux, Initial residual = 7.17645e-07, Final residual = 6.3721e-08, No Iterations 5
smoothSolver:  Solving for Uy, Initial residual = 6.06969e-07, Final residual = 5.97143e-08, No Iterations 5
GAMG:  Solving for p, Initial residual = 1.45589e-06, Final residual = 7.36528e-08, No Iterations 3
time step continuity errors : sum local = 1.31439e-07, global = 1.07874e-08, cumulative = 0.0193485
smoothSolver:  Solving for omega, Initial residual = 6.36628e-08, Final residual = 6.00112e-09, No Iterations 4
smoothSolver:  Solving for k, Initial residual = 1.18328e-07, Final residual = 9.06376e-09, No Iterations 5
ExecutionTime = 7.03 s  ClockTime = 7 s

scalarTransport execute: age
smoothSolver:  Solving for age, Initial residual = 0.000322835, Final residual = 3.00063e-05, No Iterations 15

Time = 599

smoothSolver:  Solving for Ux, Initial residual = 7.05366e-07, Final residual = 6.21646e-08, No Iterations 5
smoothSolver:  Solving for Uy, Initial residual = 5.95867e-07, Final residual = 5.88794e-08, No Iterations 5
GAMG:  Solving for p, Initial residual = 1.36709e-06, Final residual = 1.18483e-07, No Iterations 2
time step continuity errors : sum local = 2.11442e-07, global = 1.44864e-08, cumulative = 0.0193485
smoothSolver:  Solving for omega, Initial residual = 6.18805e-08, Final residual = 9.83615e-09, No Iterations 3
smoothSolver:  Solving for k, Initial residual = 1.1658e-07, Final residual = 8.90836e-09, No Iterations 5
ExecutionTime = 7.04 s  ClockTime = 7 s

scalarTransport execute: age
smoothSolver:  Solving for age, Initial residual = 0.000322195, Final residual = 2.9948e-05, No Iterations 15

Time = 600

smoothSolver:  Solving for Ux, Initial residual = 6.97122e-07, Final residual = 6.18974e-08, No Iterations 5
smoothSolver:  Solving for Uy, Initial residual = 5.89549e-07, Final residual = 5.79981e-08, No Iterations 5
GAMG:  Solving for p, Initial residual = 1.41411e-06, Final residual = 7.15457e-08, No Iterations 3
time step continuity errors : sum local = 1.27679e-07, global = 1.04816e-08, cumulative = 0.0193485
smoothSolver:  Solving for omega, Initial residual = 6.24434e-08, Final residual = 9.90938e-09, No Iterations 3
smoothSolver:  Solving for k, Initial residual = 1.15223e-07, Final residual = 8.82444e-09, No Iterations 5
ExecutionTime = 7.05 s  ClockTime = 7 s

scalarTransport execute: age
smoothSolver:  Solving for age, Initial residual = 0.000321552, Final residual = 2.98886e-05, No Iterations 15

Time = 601

smoothSolver:  Solving for Ux, Initial residual = 6.8504e-07, Final residual = 6.03682e-08, No Iterations 5
smoothSolver:  Solving for Uy, Initial residual = 5.78747e-07, Final residual = 5.71853e-08, No Iterations 5
GAMG:  Solving for p, Initial residual = 1.32833e-06, Final residual = 1.15072e-07, No Iterations 2
time step continuity errors : sum local = 2.05354e-07, global = 1.40746e-08, cumulative = 0.0193485
smoothSolver:  Solving for omega, Initial residual = 6.1693e-08, Final residual = 9.86659e-09, No Iterations 3
smoothSolver:  Solving for k, Initial residual = 1.13503e-07, Final residual = 8.67355e-09, No Iterations 5
ExecutionTime = 7.06 s  ClockTime = 7 s

scalarTransport execute: age
smoothSolver:  Solving for age, Initial residual = 0.000320917, Final residual = 2.98307e-05, No Iterations 15

Time = 602

smoothSolver:  Solving for Ux, Initial residual = 6.77043e-07, Final residual = 6.01097e-08, No Iterations 5
smoothSolver:  Solving for Uy, Initial residual = 5.72596e-07, Final residual = 5.63275e-08, No Iterations 5
GAMG:  Solving for p, Initial residual = 1.37355e-06, Final residual = 6.94945e-08, No Iterations 3
time step continuity errors : sum local = 1.24018e-07, global = 1.01823e-08, cumulative = 0.0193485
smoothSolver:  Solving for omega, Initial residual = 6.18249e-08, Final residual = 9.86931e-09, No Iterations 3
smoothSolver:  Solving for k, Initial residual = 1.12059e-07, Final residual = 8.58329e-09, No Iterations 5
ExecutionTime = 7.07 s  ClockTime = 7 s

scalarTransport execute: age
smoothSolver:  Solving for age, Initial residual = 0.000320279, Final residual = 2.97716e-05, No Iterations 15

Time = 603

smoothSolver:  Solving for Ux, Initial residual = 6.65303e-07, Final residual = 5.86239e-08, No Iterations 5
smoothSolver:  Solving for Uy, Initial residual = 5.62052e-07, Final residual = 5.55336e-08, No Iterations 5
GAMG:  Solving for p, Initial residual = 1.29014e-06, Final residual = 1.11787e-07, No Iterations 2
time step continuity errors : sum local = 1.99492e-07, global = 1.36701e-08, cumulative = 0.0193485
smoothSolver:  Solving for omega, Initial residual = 6.08133e-08, Final residual = 9.77661e-09, No Iterations 3
smoothSolver:  Solving for k, Initial residual = 1.10308e-07, Final residual = 8.43043e-09, No Iterations 5
ExecutionTime = 7.08 s  ClockTime = 7 s

scalarTransport execute: age
smoothSolver:  Solving for age, Initial residual = 0.000319648, Final residual = 2.9714e-05, No Iterations 15

Time = 604

smoothSolver:  Solving for Ux, Initial residual = 6.57511e-07, Final residual = 5.83722e-08, No Iterations 5
smoothSolver:  Solving for Uy, Initial residual = 5.56075e-07, Final residual = 5.47004e-08, No Iterations 5
GAMG:  Solving for p, Initial residual = 1.33409e-06, Final residual = 6.75034e-08, No Iterations 3
time step continuity errors : sum local = 1.20465e-07, global = 9.89004e-09, cumulative = 0.0193486
smoothSolver:  Solving for omega, Initial residual = 6.0744e-08, Final residual = 9.73996e-09, No Iterations 3
smoothSolver:  Solving for k, Initial residual = 1.08848e-07, Final residual = 8.33789e-09, No Iterations 5
ExecutionTime = 7.1 s  ClockTime = 7 s

scalarTransport execute: age
smoothSolver:  Solving for age, Initial residual = 0.000319015, Final residual = 2.96554e-05, No Iterations 15

Time = 605

smoothSolver:  Solving for Ux, Initial residual = 6.46082e-07, Final residual = 5.69279e-08, No Iterations 5
smoothSolver:  Solving for Uy, Initial residual = 5.45814e-07, Final residual = 5.39279e-08, No Iterations 5
GAMG:  Solving for p, Initial residual = 1.25303e-06, Final residual = 1.08587e-07, No Iterations 2
time step continuity errors : sum local = 1.93782e-07, global = 1.32779e-08, cumulative = 0.0193486
smoothSolver:  Solving for omega, Initial residual = 5.96091e-08, Final residual = 9.61922e-09, No Iterations 3
smoothSolver:  Solving for k, Initial residual = 1.07102e-07, Final residual = 8.1854e-09, No Iterations 5
ExecutionTime = 7.11 s  ClockTime = 7 s

scalarTransport execute: age
smoothSolver:  Solving for age, Initial residual = 0.000318389, Final residual = 2.95982e-05, No Iterations 15

Time = 606

smoothSolver:  Solving for Ux, Initial residual = 6.38486e-07, Final residual = 5.66827e-08, No Iterations 5
smoothSolver:  Solving for Uy, Initial residual = 5.40014e-07, Final residual = 5.31191e-08, No Iterations 5
GAMG:  Solving for p, Initial residual = 1.29579e-06, Final residual = 6.55625e-08, No Iterations 3
time step continuity errors : sum local = 1.17002e-07, global = 9.60505e-09, cumulative = 0.0193486
smoothSolver:  Solving for omega, Initial residual = 5.94272e-08, Final residual = 9.55918e-09, No Iterations 3
smoothSolver:  Solving for k, Initial residual = 1.05647e-07, Final residual = 8.09227e-09, No Iterations 5
ExecutionTime = 7.12 s  ClockTime = 7 s

scalarTransport execute: age
smoothSolver:  Solving for age, Initial residual = 0.000317761, Final residual = 2.954e-05, No Iterations 15

Time = 607

smoothSolver:  Solving for Ux, Initial residual = 6.2736e-07, Final residual = 5.52793e-08, No Iterations 5
smoothSolver:  Solving for Uy, Initial residual = 5.30038e-07, Final residual = 5.23678e-08, No Iterations 5
GAMG:  Solving for p, Initial residual = 1.217e-06, Final residual = 1.05458e-07, No Iterations 2
time step continuity errors : sum local = 1.88198e-07, global = 1.28956e-08, cumulative = 0.0193486
smoothSolver:  Solving for omega, Initial residual = 5.82375e-08, Final residual = 9.42271e-09, No Iterations 3
smoothSolver:  Solving for k, Initial residual = 1.0392e-07, Final residual = 7.94146e-09, No Iterations 5
ExecutionTime = 7.13 s  ClockTime = 7 s

scalarTransport execute: age
smoothSolver:  Solving for age, Initial residual = 0.00031714, Final residual = 2.94832e-05, No Iterations 15

Time = 608

smoothSolver:  Solving for Ux, Initial residual = 6.19969e-07, Final residual = 5.50414e-08, No Iterations 5
smoothSolver:  Solving for Uy, Initial residual = 5.24398e-07, Final residual = 5.15823e-08, No Iterations 5
GAMG:  Solving for p, Initial residual = 1.25852e-06, Final residual = 6.36667e-08, No Iterations 3
time step continuity errors : sum local = 1.13618e-07, global = 9.32842e-09, cumulative = 0.0193486
smoothSolver:  Solving for omega, Initial residual = 5.79926e-08, Final residual = 9.34908e-09, No Iterations 3
smoothSolver:  Solving for k, Initial residual = 1.02483e-07, Final residual = 7.84899e-09, No Iterations 5
ExecutionTime = 7.14 s  ClockTime = 7 s

scalarTransport execute: age
smoothSolver:  Solving for age, Initial residual = 0.000316517, Final residual = 2.94255e-05, No Iterations 15

Time = 609

smoothSolver:  Solving for Ux, Initial residual = 6.09146e-07, Final residual = 5.36787e-08, No Iterations 5
smoothSolver:  Solving for Uy, Initial residual = 5.14696e-07, Final residual = 5.08519e-08, No Iterations 5
GAMG:  Solving for p, Initial residual = 1.18199e-06, Final residual = 1.02403e-07, No Iterations 2
time step continuity errors : sum local = 1.82746e-07, global = 1.2522e-08, cumulative = 0.0193486
smoothSolver:  Solving for omega, Initial residual = 5.67829e-08, Final residual = 9.20435e-09, No Iterations 3
smoothSolver:  Solving for k, Initial residual = 1.00787e-07, Final residual = 7.70103e-09, No Iterations 5
ExecutionTime = 7.15 s  ClockTime = 7 s

scalarTransport execute: age
smoothSolver:  Solving for age, Initial residual = 0.000315901, Final residual = 2.93692e-05, No Iterations 15

Time = 610

smoothSolver:  Solving for Ux, Initial residual = 6.01966e-07, Final residual = 5.3449e-08, No Iterations 5
smoothSolver:  Solving for Uy, Initial residual = 5.09211e-07, Final residual = 5.00894e-08, No Iterations 5
GAMG:  Solving for p, Initial residual = 1.22222e-06, Final residual = 6.18158e-08, No Iterations 3
time step continuity errors : sum local = 1.10315e-07, global = 9.06012e-09, cumulative = 0.0193486
smoothSolver:  Solving for omega, Initial residual = 5.65033e-08, Final residual = 9.12316e-09, No Iterations 3
smoothSolver:  Solving for k, Initial residual = 9.93789e-08, Final residual = 7.61035e-09, No Iterations 5
ExecutionTime = 7.17 s  ClockTime = 7 s

scalarTransport execute: age
smoothSolver:  Solving for age, Initial residual = 0.000315283, Final residual = 2.93119e-05, No Iterations 15

Time = 611

smoothSolver:  Solving for Ux, Initial residual = 5.91452e-07, Final residual = 5.21264e-08, No Iterations 5
smoothSolver:  Solving for Uy, Initial residual = 4.99785e-07, Final residual = 4.93806e-08, No Iterations 5
GAMG:  Solving for p, Initial residual = 1.1479e-06, Final residual = 9.94261e-08, No Iterations 2
time step continuity errors : sum local = 1.77434e-07, global = 1.21559e-08, cumulative = 0.0193486
smoothSolver:  Solving for omega, Initial residual = 5.52929e-08, Final residual = 8.97481e-09, No Iterations 3
smoothSolver:  Solving for k, Initial residual = 9.77251e-08, Final residual = 7.46631e-09, No Iterations 5
ExecutionTime = 7.18 s  ClockTime = 7 s

scalarTransport execute: age
smoothSolver:  Solving for age, Initial residual = 0.000314671, Final residual = 2.9256e-05, No Iterations 15

Time = 612

smoothSolver:  Solving for Ux, Initial residual = 5.84495e-07, Final residual = 5.19053e-08, No Iterations 5
smoothSolver:  Solving for Uy, Initial residual = 4.94464e-07, Final residual = 4.86415e-08, No Iterations 5
GAMG:  Solving for p, Initial residual = 1.18688e-06, Final residual = 6.00139e-08, No Iterations 3
time step continuity errors : sum local = 1.071e-07, global = 8.8001e-09, cumulative = 0.0193486
smoothSolver:  Solving for omega, Initial residual = 5.49958e-08, Final residual = 8.88974e-09, No Iterations 3
smoothSolver:  Solving for k, Initial residual = 9.63582e-08, Final residual = 7.37842e-09, No Iterations 5
ExecutionTime = 7.19 s  ClockTime = 7 s

scalarTransport execute: age
smoothSolver:  Solving for age, Initial residual = 0.000314057, Final residual = 2.91992e-05, No Iterations 15

Time = 613

smoothSolver:  Solving for Ux, Initial residual = 5.74298e-07, Final residual = 5.06215e-08, No Iterations 5
smoothSolver:  Solving for Uy, Initial residual = 4.85326e-07, Final residual = 4.79558e-08, No Iterations 5
GAMG:  Solving for p, Initial residual = 1.11477e-06, Final residual = 9.65389e-08, No Iterations 2
time step continuity errors : sum local = 1.72282e-07, global = 1.17974e-08, cumulative = 0.0193487
smoothSolver:  Solving for omega, Initial residual = 5.37961e-08, Final residual = 8.74068e-09, No Iterations 3
smoothSolver:  Solving for k, Initial residual = 9.47569e-08, Final residual = 7.23914e-09, No Iterations 5
ExecutionTime = 7.2 s  ClockTime = 7 s

scalarTransport execute: age
smoothSolver:  Solving for age, Initial residual = 0.00031345, Final residual = 2.91436e-05, No Iterations 15

Time = 614

smoothSolver:  Solving for Ux, Initial residual = 5.67574e-07, Final residual = 5.04092e-08, No Iterations 5
smoothSolver:  Solving for Uy, Initial residual = 4.80187e-07, Final residual = 4.72408e-08, No Iterations 5
GAMG:  Solving for p, Initial residual = 1.15256e-06, Final residual = 5.82661e-08, No Iterations 3
time step continuity errors : sum local = 1.03981e-07, global = 8.54854e-09, cumulative = 0.0193487
smoothSolver:  Solving for omega, Initial residual = 5.34919e-08, Final residual = 8.65409e-09, No Iterations 3
smoothSolver:  Solving for k, Initial residual = 9.34401e-08, Final residual = 7.15477e-09, No Iterations 5
ExecutionTime = 7.21 s  ClockTime = 7 s

scalarTransport execute: age
smoothSolver:  Solving for age, Initial residual = 0.00031284, Final residual = 2.90872e-05, No Iterations 15

Time = 615

smoothSolver:  Solving for Ux, Initial residual = 5.57694e-07, Final residual = 4.91629e-08, No Iterations 5
smoothSolver:  Solving for Uy, Initial residual = 4.71346e-07, Final residual = 4.65791e-08, No Iterations 5
GAMG:  Solving for p, Initial residual = 1.08262e-06, Final residual = 9.37501e-08, No Iterations 2
time step continuity errors : sum local = 1.67305e-07, global = 1.14477e-08, cumulative = 0.0193487
smoothSolver:  Solving for omega, Initial residual = 5.23104e-08, Final residual = 8.50612e-09, No Iterations 3
smoothSolver:  Solving for k, Initial residual = 9.18986e-08, Final residual = 7.02078e-09, No Iterations 5
ExecutionTime = 7.22 s  ClockTime = 7 s

scalarTransport execute: age
smoothSolver:  Solving for age, Initial residual = 0.000312236, Final residual = 2.9032e-05, No Iterations 15

Time = 616

smoothSolver:  Solving for Ux, Initial residual = 5.51202e-07, Final residual = 4.89589e-08, No Iterations 5
smoothSolver:  Solving for Uy, Initial residual = 4.66402e-07, Final residual = 4.58885e-08, No Iterations 5
GAMG:  Solving for p, Initial residual = 1.11931e-06, Final residual = 5.6577e-08, No Iterations 3
time step continuity errors : sum local = 1.00967e-07, global = 8.3054e-09, cumulative = 0.0193487
smoothSolver:  Solving for omega, Initial residual = 5.20063e-08, Final residual = 8.41957e-09, No Iterations 3
smoothSolver:  Solving for k, Initial residual = 9.06376e-08, Final residual = 6.94024e-09, No Iterations 5
ExecutionTime = 7.23 s  ClockTime = 7 s

scalarTransport execute: age
smoothSolver:  Solving for age, Initial residual = 0.000311628, Final residual = 2.89759e-05, No Iterations 15

Time = 617

smoothSolver:  Solving for Ux, Initial residual = 5.41631e-07, Final residual = 4.77485e-08, No Iterations 5
smoothSolver:  Solving for Uy, Initial residual = 4.57856e-07, Final residual = 4.52506e-08, No Iterations 5
GAMG:  Solving for p, Initial residual = 1.05147e-06, Final residual = 9.10615e-08, No Iterations 2
time step continuity errors : sum local = 1.62507e-07, global = 1.11083e-08, cumulative = 0.0193487
smoothSolver:  Solving for omega, Initial residual = 5.0848e-08, Final residual = 8.27388e-09, No Iterations 3
smoothSolver:  Solving for k, Initial residual = 8.91591e-08, Final residual = 6.81169e-09, No Iterations 5
ExecutionTime = 7.25 s  ClockTime = 7 s

scalarTransport execute: age
smoothSolver:  Solving for age, Initial residual = 0.000311027, Final residual = 2.89211e-05, No Iterations 15

Time = 618

smoothSolver:  Solving for Ux, Initial residual = 5.3536e-07, Final residual = 4.75519e-08, No Iterations 5
smoothSolver:  Solving for Uy, Initial residual = 4.53102e-07, Final residual = 4.45836e-08, No Iterations 5
GAMG:  Solving for p, Initial residual = 1.08715e-06, Final residual = 5.49473e-08, No Iterations 3
time step continuity errors : sum local = 9.80584e-08, global = 8.0702e-09, cumulative = 0.0193487
smoothSolver:  Solving for omega, Initial residual = 5.05484e-08, Final residual = 8.18839e-09, No Iterations 3
smoothSolver:  Solving for k, Initial residual = 8.79558e-08, Final residual = 6.73504e-09, No Iterations 5
ExecutionTime = 7.26 s  ClockTime = 7 s

scalarTransport execute: age
smoothSolver:  Solving for age, Initial residual = 0.000310426, Final residual = 2.88655e-05, No Iterations 15

Time = 619

smoothSolver:  Solving for Ux, Initial residual = 5.26082e-07, Final residual = 4.63759e-08, No Iterations 5
smoothSolver:  Solving for Uy, Initial residual = 4.44836e-07, Final residual = 4.39677e-08, No Iterations 5
GAMG:  Solving for p, Initial residual = 1.02131e-06, Final residual = 8.84677e-08, No Iterations 2
time step continuity errors : sum local = 1.57879e-07, global = 1.07797e-08, cumulative = 0.0193487
smoothSolver:  Solving for omega, Initial residual = 4.94166e-08, Final residual = 8.04576e-09, No Iterations 3
smoothSolver:  Solving for k, Initial residual = 8.65391e-08, Final residual = 6.6118e-09, No Iterations 5
ExecutionTime = 7.27 s  ClockTime = 7 s

scalarTransport execute: age
smoothSolver:  Solving for age, Initial residual = 0.000309832, Final residual = 2.88111e-05, No Iterations 15

Time = 620

smoothSolver:  Solving for Ux, Initial residual = 5.20012e-07, Final residual = 4.61857e-08, No Iterations 5
smoothSolver:  Solving for Uy, Initial residual = 4.40254e-07, Final residual = 4.33223e-08, No Iterations 5
GAMG:  Solving for p, Initial residual = 1.056e-06, Final residual = 5.33741e-08, No Iterations 3
time step continuity errors : sum local = 9.52509e-08, global = 7.84213e-09, cumulative = 0.0193487
smoothSolver:  Solving for omega, Initial residual = 4.9124e-08, Final residual = 7.96195e-09, No Iterations 3
smoothSolver:  Solving for k, Initial residual = 8.5391e-08, Final residual = 6.53886e-09, No Iterations 5
ExecutionTime = 7.28 s  ClockTime = 7 s

scalarTransport execute: age
smoothSolver:  Solving for age, Initial residual = 0.000309237, Final residual = 2.87557e-05, No Iterations 15

Time = 621

smoothSolver:  Solving for Ux, Initial residual = 5.11006e-07, Final residual = 4.50431e-08, No Iterations 5
smoothSolver:  Solving for Uy, Initial residual = 4.32238e-07, Final residual = 4.27256e-08, No Iterations 5
GAMG:  Solving for p, Initial residual = 9.92053e-07, Final residual = 8.59576e-08, No Iterations 2
time step continuity errors : sum local = 1.53399e-07, global = 1.04618e-08, cumulative = 0.0193487
smoothSolver:  Solving for omega, Initial residual = 4.80206e-08, Final residual = 7.82281e-09, No Iterations 3
smoothSolver:  Solving for k, Initial residual = 8.4032e-08, Final residual = 6.42062e-09, No Iterations 5
ExecutionTime = 7.29 s  ClockTime = 7 s


SIMPLE solution converged in 621 iterations

scalarTransport execute: age
smoothSolver:  Solving for age, Initial residual = 0.000308648, Final residual = 2.87016e-05, No Iterations 15

End

