/*---------------------------------------------------------------------------*\
| =========                 |                                                 |
| \\      /  F ield         | OpenFOAM: The Open Source CFD Toolbox           |
|  \\    /   O peration     | Version:  v2012                                 |
|   \\  /    A nd           | Website:  www.openfoam.com                      |
|    \\/     M anipulation  |                                                 |
\*---------------------------------------------------------------------------*/
Build  : _7bdb509494-20201222 OPENFOAM=2012
Arch   : "LSB;label=32;scalar=64"
Exec   : edgeMat
Date   : Feb 02 2023
Time   : 12:28:57
Host   : johnsPC
PID    : 22766
I/O    : uncollated
Case   : /home/john/of_cases/baffle/cases/0_7Re10_1
nProcs : 1
trapFpe: Floating point exception trapping enabled (FOAM_SIGFPE).
fileModificationChecking : Monitoring run-time modified files using timeStampMaster (fileModificationSkew 5, maxFileModificationPolls 20)
allowSystemOperations : Allowing user-supplied system call operations

// * * * * * * * * * * * * * * * * * * * * * * * * * * * * * * * * * * * * * //
Create time

Create mesh for time = 0


SIMPLE: convergence criteria
    field p	 tolerance 1e-06
    field U	 tolerance 1e-06
    field "(k|epsilon|omega|f|v2|age)"	 tolerance 1e-05


Calculating Adjacency Matrix

0	1
0	20
0	227
1	0
1	2
1	21
2	1
2	3
2	22
3	2
3	4
3	23
4	3
4	5
4	24
5	4
5	6
5	25
6	5
6	7
6	26
7	6
7	8
7	27
8	7
8	9
8	28
9	8
9	10
9	29
10	9
10	11
10	30
11	10
11	12
11	31
12	11
12	13
12	32
13	12
13	14
13	33
14	13
14	15
14	34
15	14
15	16
15	35
16	15
16	17
16	36
17	16
17	18
17	37
18	17
18	19
18	38
19	18
19	39
20	0
20	21
20	40
20	255
21	1
21	20
21	22
21	41
22	2
22	21
22	23
22	42
23	3
23	22
23	24
23	43
24	4
24	23
24	25
24	44
25	5
25	24
25	26
25	45
26	6
26	25
26	27
26	46
27	7
27	26
27	28
27	47
28	8
28	27
28	29
28	48
29	9
29	28
29	30
29	49
30	10
30	29
30	31
30	50
31	11
31	30
31	32
31	51
32	12
32	31
32	33
32	52
33	13
33	32
33	34
33	53
34	14
34	33
34	35
34	54
35	15
35	34
35	36
35	55
36	16
36	35
36	37
36	56
37	17
37	36
37	38
37	57
38	18
38	37
38	39
38	58
39	19
39	38
39	59
40	20
40	41
40	60
40	283
41	21
41	40
41	42
41	61
42	22
42	41
42	43
42	62
43	23
43	42
43	44
43	63
44	24
44	43
44	45
44	64
45	25
45	44
45	46
45	65
46	26
46	45
46	47
46	66
47	27
47	46
47	48
47	67
48	28
48	47
48	49
48	68
49	29
49	48
49	50
49	69
50	30
50	49
50	51
50	70
51	31
51	50
51	52
51	71
52	32
52	51
52	53
52	72
53	33
53	52
53	54
53	73
54	34
54	53
54	55
54	74
55	35
55	54
55	56
55	75
56	36
56	55
56	57
56	76
57	37
57	56
57	58
57	77
58	38
58	57
58	59
58	78
59	39
59	58
59	79
60	40
60	61
60	80
60	311
61	41
61	60
61	62
61	81
62	42
62	61
62	63
62	82
63	43
63	62
63	64
63	83
64	44
64	63
64	65
64	84
65	45
65	64
65	66
65	85
66	46
66	65
66	67
66	86
67	47
67	66
67	68
67	87
68	48
68	67
68	69
68	88
69	49
69	68
69	70
69	89
70	50
70	69
70	71
70	90
71	51
71	70
71	72
71	91
72	52
72	71
72	73
72	92
73	53
73	72
73	74
73	93
74	54
74	73
74	75
74	94
75	55
75	74
75	76
75	95
76	56
76	75
76	77
76	96
77	57
77	76
77	78
77	97
78	58
78	77
78	79
78	98
79	59
79	78
79	99
80	60
80	81
80	100
80	339
81	61
81	80
81	82
81	101
82	62
82	81
82	83
82	102
83	63
83	82
83	84
83	103
84	64
84	83
84	85
84	104
85	65
85	84
85	86
85	105
86	66
86	85
86	87
86	106
87	67
87	86
87	88
87	107
88	68
88	87
88	89
88	108
89	69
89	88
89	90
89	109
90	70
90	89
90	91
90	110
91	71
91	90
91	92
91	111
92	72
92	91
92	93
92	112
93	73
93	92
93	94
93	113
94	74
94	93
94	95
94	114
95	75
95	94
95	96
95	115
96	76
96	95
96	97
96	116
97	77
97	96
97	98
97	117
98	78
98	97
98	99
98	118
99	79
99	98
99	119
100	80
100	101
100	120
100	367
101	81
101	100
101	102
101	121
102	82
102	101
102	103
102	122
103	83
103	102
103	104
103	123
104	84
104	103
104	105
104	124
105	85
105	104
105	106
105	125
106	86
106	105
106	107
106	126
107	87
107	106
107	108
107	127
108	88
108	107
108	109
108	128
109	89
109	108
109	110
109	129
110	90
110	109
110	111
110	130
111	91
111	110
111	112
111	131
112	92
112	111
112	113
112	132
113	93
113	112
113	114
113	133
114	94
114	113
114	115
114	134
115	95
115	114
115	116
115	135
116	96
116	115
116	117
116	136
117	97
117	116
117	118
117	137
118	98
118	117
118	119
118	138
119	99
119	118
119	139
120	100
120	121
120	140
120	395
121	101
121	120
121	122
121	141
122	102
122	121
122	123
122	142
123	103
123	122
123	124
123	143
124	104
124	123
124	125
124	144
125	105
125	124
125	126
125	145
126	106
126	125
126	127
126	146
127	107
127	126
127	128
127	147
128	108
128	127
128	129
128	148
129	109
129	128
129	130
129	149
130	110
130	129
130	131
130	150
131	111
131	130
131	132
131	151
132	112
132	131
132	133
132	152
133	113
133	132
133	134
133	153
134	114
134	133
134	135
134	154
135	115
135	134
135	136
135	155
136	116
136	135
136	137
136	156
137	117
137	136
137	138
137	157
138	118
138	137
138	139
138	158
139	119
139	138
139	159
140	120
140	141
140	160
140	423
141	121
141	140
141	142
141	161
142	122
142	141
142	143
142	162
143	123
143	142
143	144
143	163
144	124
144	143
144	145
144	164
145	125
145	144
145	146
145	165
146	126
146	145
146	147
146	166
147	127
147	146
147	148
147	167
148	128
148	147
148	149
148	168
149	129
149	148
149	150
149	169
150	130
150	149
150	151
150	170
151	131
151	150
151	152
151	171
152	132
152	151
152	153
152	172
153	133
153	152
153	154
153	173
154	134
154	153
154	155
154	174
155	135
155	154
155	156
155	175
156	136
156	155
156	157
156	176
157	137
157	156
157	158
157	177
158	138
158	157
158	159
158	178
159	139
159	158
159	179
160	140
160	161
160	180
160	451
161	141
161	160
161	162
161	181
162	142
162	161
162	163
162	182
163	143
163	162
163	164
163	183
164	144
164	163
164	165
164	184
165	145
165	164
165	166
165	185
166	146
166	165
166	167
166	186
167	147
167	166
167	168
167	187
168	148
168	167
168	169
168	188
169	149
169	168
169	170
169	189
170	150
170	169
170	171
170	190
171	151
171	170
171	172
171	191
172	152
172	171
172	173
172	192
173	153
173	172
173	174
173	193
174	154
174	173
174	175
174	194
175	155
175	174
175	176
175	195
176	156
176	175
176	177
176	196
177	157
177	176
177	178
177	197
178	158
178	177
178	179
178	198
179	159
179	178
179	199
180	160
180	181
180	479
181	161
181	180
181	182
182	162
182	181
182	183
183	163
183	182
183	184
184	164
184	183
184	185
185	165
185	184
185	186
186	166
186	185
186	187
187	167
187	186
187	188
188	168
188	187
188	189
189	169
189	188
189	190
190	170
190	189
190	191
191	171
191	190
191	192
192	172
192	191
192	193
193	173
193	192
193	194
194	174
194	193
194	195
195	175
195	194
195	196
196	176
196	195
196	197
197	177
197	196
197	198
198	178
198	197
198	199
199	179
199	198
200	201
200	228
200	491
201	200
201	202
201	229
202	201
202	203
202	230
203	202
203	204
203	231
204	203
204	205
204	232
205	204
205	206
205	233
206	205
206	207
206	234
207	206
207	208
207	235
208	207
208	209
208	236
209	208
209	210
209	237
210	209
210	211
210	238
211	210
211	212
211	239
212	211
212	213
212	240
213	212
213	214
213	241
214	213
214	215
214	242
215	214
215	216
215	243
216	215
216	217
216	244
217	216
217	218
217	245
218	217
218	219
218	246
219	218
219	220
219	247
220	219
220	221
220	248
221	220
221	222
221	249
222	221
222	223
222	250
223	222
223	224
223	251
224	223
224	225
224	252
225	224
225	226
225	253
226	225
226	227
226	254
227	0
227	226
227	255
228	200
228	229
228	256
228	503
229	201
229	228
229	230
229	257
230	202
230	229
230	231
230	258
231	203
231	230
231	232
231	259
232	204
232	231
232	233
232	260
233	205
233	232
233	234
233	261
234	206
234	233
234	235
234	262
235	207
235	234
235	236
235	263
236	208
236	235
236	237
236	264
237	209
237	236
237	238
237	265
238	210
238	237
238	239
238	266
239	211
239	238
239	240
239	267
240	212
240	239
240	241
240	268
241	213
241	240
241	242
241	269
242	214
242	241
242	243
242	270
243	215
243	242
243	244
243	271
244	216
244	243
244	245
244	272
245	217
245	244
245	246
245	273
246	218
246	245
246	247
246	274
247	219
247	246
247	248
247	275
248	220
248	247
248	249
248	276
249	221
249	248
249	250
249	277
250	222
250	249
250	251
250	278
251	223
251	250
251	252
251	279
252	224
252	251
252	253
252	280
253	225
253	252
253	254
253	281
254	226
254	253
254	255
254	282
255	20
255	227
255	254
255	283
256	228
256	257
256	284
256	515
257	229
257	256
257	258
257	285
258	230
258	257
258	259
258	286
259	231
259	258
259	260
259	287
260	232
260	259
260	261
260	288
261	233
261	260
261	262
261	289
262	234
262	261
262	263
262	290
263	235
263	262
263	264
263	291
264	236
264	263
264	265
264	292
265	237
265	264
265	266
265	293
266	238
266	265
266	267
266	294
267	239
267	266
267	268
267	295
268	240
268	267
268	269
268	296
269	241
269	268
269	270
269	297
270	242
270	269
270	271
270	298
271	243
271	270
271	272
271	299
272	244
272	271
272	273
272	300
273	245
273	272
273	274
273	301
274	246
274	273
274	275
274	302
275	247
275	274
275	276
275	303
276	248
276	275
276	277
276	304
277	249
277	276
277	278
277	305
278	250
278	277
278	279
278	306
279	251
279	278
279	280
279	307
280	252
280	279
280	281
280	308
281	253
281	280
281	282
281	309
282	254
282	281
282	283
282	310
283	40
283	255
283	282
283	311
284	256
284	285
284	312
284	527
285	257
285	284
285	286
285	313
286	258
286	285
286	287
286	314
287	259
287	286
287	288
287	315
288	260
288	287
288	289
288	316
289	261
289	288
289	290
289	317
290	262
290	289
290	291
290	318
291	263
291	290
291	292
291	319
292	264
292	291
292	293
292	320
293	265
293	292
293	294
293	321
294	266
294	293
294	295
294	322
295	267
295	294
295	296
295	323
296	268
296	295
296	297
296	324
297	269
297	296
297	298
297	325
298	270
298	297
298	299
298	326
299	271
299	298
299	300
299	327
300	272
300	299
300	301
300	328
301	273
301	300
301	302
301	329
302	274
302	301
302	303
302	330
303	275
303	302
303	304
303	331
304	276
304	303
304	305
304	332
305	277
305	304
305	306
305	333
306	278
306	305
306	307
306	334
307	279
307	306
307	308
307	335
308	280
308	307
308	309
308	336
309	281
309	308
309	310
309	337
310	282
310	309
310	311
310	338
311	60
311	283
311	310
311	339
312	284
312	313
312	340
312	539
313	285
313	312
313	314
313	341
314	286
314	313
314	315
314	342
315	287
315	314
315	316
315	343
316	288
316	315
316	317
316	344
317	289
317	316
317	318
317	345
318	290
318	317
318	319
318	346
319	291
319	318
319	320
319	347
320	292
320	319
320	321
320	348
321	293
321	320
321	322
321	349
322	294
322	321
322	323
322	350
323	295
323	322
323	324
323	351
324	296
324	323
324	325
324	352
325	297
325	324
325	326
325	353
326	298
326	325
326	327
326	354
327	299
327	326
327	328
327	355
328	300
328	327
328	329
328	356
329	301
329	328
329	330
329	357
330	302
330	329
330	331
330	358
331	303
331	330
331	332
331	359
332	304
332	331
332	333
332	360
333	305
333	332
333	334
333	361
334	306
334	333
334	335
334	362
335	307
335	334
335	336
335	363
336	308
336	335
336	337
336	364
337	309
337	336
337	338
337	365
338	310
338	337
338	339
338	366
339	80
339	311
339	338
339	367
340	312
340	341
340	368
340	551
341	313
341	340
341	342
341	369
342	314
342	341
342	343
342	370
343	315
343	342
343	344
343	371
344	316
344	343
344	345
344	372
345	317
345	344
345	346
345	373
346	318
346	345
346	347
346	374
347	319
347	346
347	348
347	375
348	320
348	347
348	349
348	376
349	321
349	348
349	350
349	377
350	322
350	349
350	351
350	378
351	323
351	350
351	352
351	379
352	324
352	351
352	353
352	380
353	325
353	352
353	354
353	381
354	326
354	353
354	355
354	382
355	327
355	354
355	356
355	383
356	328
356	355
356	357
356	384
357	329
357	356
357	358
357	385
358	330
358	357
358	359
358	386
359	331
359	358
359	360
359	387
360	332
360	359
360	361
360	388
361	333
361	360
361	362
361	389
362	334
362	361
362	363
362	390
363	335
363	362
363	364
363	391
364	336
364	363
364	365
364	392
365	337
365	364
365	366
365	393
366	338
366	365
366	367
366	394
367	100
367	339
367	366
367	395
368	340
368	369
368	396
368	563
369	341
369	368
369	370
369	397
370	342
370	369
370	371
370	398
371	343
371	370
371	372
371	399
372	344
372	371
372	373
372	400
373	345
373	372
373	374
373	401
374	346
374	373
374	375
374	402
375	347
375	374
375	376
375	403
376	348
376	375
376	377
376	404
377	349
377	376
377	378
377	405
378	350
378	377
378	379
378	406
379	351
379	378
379	380
379	407
380	352
380	379
380	381
380	408
381	353
381	380
381	382
381	409
382	354
382	381
382	383
382	410
383	355
383	382
383	384
383	411
384	356
384	383
384	385
384	412
385	357
385	384
385	386
385	413
386	358
386	385
386	387
386	414
387	359
387	386
387	388
387	415
388	360
388	387
388	389
388	416
389	361
389	388
389	390
389	417
390	362
390	389
390	391
390	418
391	363
391	390
391	392
391	419
392	364
392	391
392	393
392	420
393	365
393	392
393	394
393	421
394	366
394	393
394	395
394	422
395	120
395	367
395	394
395	423
396	368
396	397
396	424
396	575
397	369
397	396
397	398
397	425
398	370
398	397
398	399
398	426
399	371
399	398
399	400
399	427
400	372
400	399
400	401
400	428
401	373
401	400
401	402
401	429
402	374
402	401
402	403
402	430
403	375
403	402
403	404
403	431
404	376
404	403
404	405
404	432
405	377
405	404
405	406
405	433
406	378
406	405
406	407
406	434
407	379
407	406
407	408
407	435
408	380
408	407
408	409
408	436
409	381
409	408
409	410
409	437
410	382
410	409
410	411
410	438
411	383
411	410
411	412
411	439
412	384
412	411
412	413
412	440
413	385
413	412
413	414
413	441
414	386
414	413
414	415
414	442
415	387
415	414
415	416
415	443
416	388
416	415
416	417
416	444
417	389
417	416
417	418
417	445
418	390
418	417
418	419
418	446
419	391
419	418
419	420
419	447
420	392
420	419
420	421
420	448
421	393
421	420
421	422
421	449
422	394
422	421
422	423
422	450
423	140
423	395
423	422
423	451
424	396
424	425
424	452
424	587
425	397
425	424
425	426
425	453
426	398
426	425
426	427
426	454
427	399
427	426
427	428
427	455
428	400
428	427
428	429
428	456
429	401
429	428
429	430
429	457
430	402
430	429
430	431
430	458
431	403
431	430
431	432
431	459
432	404
432	431
432	433
432	460
433	405
433	432
433	434
433	461
434	406
434	433
434	435
434	462
435	407
435	434
435	436
435	463
436	408
436	435
436	437
436	464
437	409
437	436
437	438
437	465
438	410
438	437
438	439
438	466
439	411
439	438
439	440
439	467
440	412
440	439
440	441
440	468
441	413
441	440
441	442
441	469
442	414
442	441
442	443
442	470
443	415
443	442
443	444
443	471
444	416
444	443
444	445
444	472
445	417
445	444
445	446
445	473
446	418
446	445
446	447
446	474
447	419
447	446
447	448
447	475
448	420
448	447
448	449
448	476
449	421
449	448
449	450
449	477
450	422
450	449
450	451
450	478
451	160
451	423
451	450
451	479
452	424
452	453
452	599
452	600
453	425
453	452
453	454
453	601
454	426
454	453
454	455
454	602
455	427
455	454
455	456
455	603
456	428
456	455
456	457
456	604
457	429
457	456
457	458
457	605
458	430
458	457
458	459
458	606
459	431
459	458
459	460
459	607
460	432
460	459
460	461
460	608
461	433
461	460
461	462
461	609
462	434
462	461
462	463
462	610
463	435
463	462
463	464
463	611
464	436
464	463
464	465
464	612
465	437
465	464
465	466
465	613
466	438
466	465
466	467
466	614
467	439
467	466
467	468
467	615
468	440
468	467
468	469
468	616
469	441
469	468
469	470
469	617
470	442
470	469
470	471
470	618
471	443
471	470
471	472
471	619
472	444
472	471
472	473
472	620
473	445
473	472
473	474
473	621
474	446
474	473
474	475
474	622
475	447
475	474
475	476
475	623
476	448
476	475
476	477
476	624
477	449
477	476
477	478
477	625
478	450
478	477
478	479
478	626
479	180
479	451
479	478
479	627
480	481
480	492
481	480
481	482
481	493
482	481
482	483
482	494
483	482
483	484
483	495
484	483
484	485
484	496
485	484
485	486
485	497
486	485
486	487
486	498
487	486
487	488
487	499
488	487
488	489
488	500
489	488
489	490
489	501
490	489
490	491
490	502
491	200
491	490
491	503
492	480
492	493
492	504
493	481
493	492
493	494
493	505
494	482
494	493
494	495
494	506
495	483
495	494
495	496
495	507
496	484
496	495
496	497
496	508
497	485
497	496
497	498
497	509
498	486
498	497
498	499
498	510
499	487
499	498
499	500
499	511
500	488
500	499
500	501
500	512
501	489
501	500
501	502
501	513
502	490
502	501
502	503
502	514
503	228
503	491
503	502
503	515
504	492
504	505
504	516
505	493
505	504
505	506
505	517
506	494
506	505
506	507
506	518
507	495
507	506
507	508
507	519
508	496
508	507
508	509
508	520
509	497
509	508
509	510
509	521
510	498
510	509
510	511
510	522
511	499
511	510
511	512
511	523
512	500
512	511
512	513
512	524
513	501
513	512
513	514
513	525
514	502
514	513
514	515
514	526
515	256
515	503
515	514
515	527
516	504
516	517
516	528
517	505
517	516
517	518
517	529
518	506
518	517
518	519
518	530
519	507
519	518
519	520
519	531
520	508
520	519
520	521
520	532
521	509
521	520
521	522
521	533
522	510
522	521
522	523
522	534
523	511
523	522
523	524
523	535
524	512
524	523
524	525
524	536
525	513
525	524
525	526
525	537
526	514
526	525
526	527
526	538
527	284
527	515
527	526
527	539
528	516
528	529
528	540
529	517
529	528
529	530
529	541
530	518
530	529
530	531
530	542
531	519
531	530
531	532
531	543
532	520
532	531
532	533
532	544
533	521
533	532
533	534
533	545
534	522
534	533
534	535
534	546
535	523
535	534
535	536
535	547
536	524
536	535
536	537
536	548
537	525
537	536
537	538
537	549
538	526
538	537
538	539
538	550
539	312
539	527
539	538
539	551
540	528
540	541
540	552
541	529
541	540
541	542
541	553
542	530
542	541
542	543
542	554
543	531
543	542
543	544
543	555
544	532
544	543
544	545
544	556
545	533
545	544
545	546
545	557
546	534
546	545
546	547
546	558
547	535
547	546
547	548
547	559
548	536
548	547
548	549
548	560
549	537
549	548
549	550
549	561
550	538
550	549
550	551
550	562
551	340
551	539
551	550
551	563
552	540
552	553
552	564
553	541
553	552
553	554
553	565
554	542
554	553
554	555
554	566
555	543
555	554
555	556
555	567
556	544
556	555
556	557
556	568
557	545
557	556
557	558
557	569
558	546
558	557
558	559
558	570
559	547
559	558
559	560
559	571
560	548
560	559
560	561
560	572
561	549
561	560
561	562
561	573
562	550
562	561
562	563
562	574
563	368
563	551
563	562
563	575
564	552
564	565
564	576
565	553
565	564
565	566
565	577
566	554
566	565
566	567
566	578
567	555
567	566
567	568
567	579
568	556
568	567
568	569
568	580
569	557
569	568
569	570
569	581
570	558
570	569
570	571
570	582
571	559
571	570
571	572
571	583
572	560
572	571
572	573
572	584
573	561
573	572
573	574
573	585
574	562
574	573
574	575
574	586
575	396
575	563
575	574
575	587
576	564
576	577
576	588
577	565
577	576
577	578
577	589
578	566
578	577
578	579
578	590
579	567
579	578
579	580
579	591
580	568
580	579
580	581
580	592
581	569
581	580
581	582
581	593
582	570
582	581
582	583
582	594
583	571
583	582
583	584
583	595
584	572
584	583
584	585
584	596
585	573
585	584
585	586
585	597
586	574
586	585
586	587
586	598
587	424
587	575
587	586
587	599
588	576
588	589
588	2280
589	577
589	588
589	590
589	2281
590	578
590	589
590	591
590	2282
591	579
591	590
591	592
591	2283
592	580
592	591
592	593
592	2284
593	581
593	592
593	594
593	2285
594	582
594	593
594	595
594	2286
595	583
595	594
595	596
595	2287
596	584
596	595
596	597
596	2288
597	585
597	596
597	598
597	2289
598	586
598	597
598	599
598	2290
599	452
599	587
599	598
599	2291
600	452
600	601
600	628
600	2291
601	453
601	600
601	602
601	629
602	454
602	601
602	603
602	630
603	455
603	602
603	604
603	631
604	456
604	603
604	605
604	632
605	457
605	604
605	606
605	633
606	458
606	605
606	607
606	634
607	459
607	606
607	608
607	635
608	460
608	607
608	609
608	636
609	461
609	608
609	610
609	637
610	462
610	609
610	611
610	638
611	463
611	610
611	612
611	639
612	464
612	611
612	613
612	640
613	465
613	612
613	614
613	641
614	466
614	613
614	615
614	642
615	467
615	614
615	616
615	643
616	468
616	615
616	617
616	644
617	469
617	616
617	618
617	645
618	470
618	617
618	619
618	646
619	471
619	618
619	620
619	647
620	472
620	619
620	621
620	648
621	473
621	620
621	622
621	649
622	474
622	621
622	623
622	650
623	475
623	622
623	624
623	651
624	476
624	623
624	625
624	652
625	477
625	624
625	626
625	653
626	478
626	625
626	627
626	654
627	479
627	626
627	655
628	600
628	629
628	656
628	2303
629	601
629	628
629	630
629	657
630	602
630	629
630	631
630	658
631	603
631	630
631	632
631	659
632	604
632	631
632	633
632	660
633	605
633	632
633	634
633	661
634	606
634	633
634	635
634	662
635	607
635	634
635	636
635	663
636	608
636	635
636	637
636	664
637	609
637	636
637	638
637	665
638	610
638	637
638	639
638	666
639	611
639	638
639	640
639	667
640	612
640	639
640	641
640	668
641	613
641	640
641	642
641	669
642	614
642	641
642	643
642	670
643	615
643	642
643	644
643	671
644	616
644	643
644	645
644	672
645	617
645	644
645	646
645	673
646	618
646	645
646	647
646	674
647	619
647	646
647	648
647	675
648	620
648	647
648	649
648	676
649	621
649	648
649	650
649	677
650	622
650	649
650	651
650	678
651	623
651	650
651	652
651	679
652	624
652	651
652	653
652	680
653	625
653	652
653	654
653	681
654	626
654	653
654	655
654	682
655	627
655	654
655	683
656	628
656	657
656	684
656	2315
657	629
657	656
657	658
657	685
658	630
658	657
658	659
658	686
659	631
659	658
659	660
659	687
660	632
660	659
660	661
660	688
661	633
661	660
661	662
661	689
662	634
662	661
662	663
662	690
663	635
663	662
663	664
663	691
664	636
664	663
664	665
664	692
665	637
665	664
665	666
665	693
666	638
666	665
666	667
666	694
667	639
667	666
667	668
667	695
668	640
668	667
668	669
668	696
669	641
669	668
669	670
669	697
670	642
670	669
670	671
670	698
671	643
671	670
671	672
671	699
672	644
672	671
672	673
672	700
673	645
673	672
673	674
673	701
674	646
674	673
674	675
674	702
675	647
675	674
675	676
675	703
676	648
676	675
676	677
676	704
677	649
677	676
677	678
677	705
678	650
678	677
678	679
678	706
679	651
679	678
679	680
679	707
680	652
680	679
680	681
680	708
681	653
681	680
681	682
681	709
682	654
682	681
682	683
682	710
683	655
683	682
683	711
684	656
684	685
684	712
684	2327
685	657
685	684
685	686
685	713
686	658
686	685
686	687
686	714
687	659
687	686
687	688
687	715
688	660
688	687
688	689
688	716
689	661
689	688
689	690
689	717
690	662
690	689
690	691
690	718
691	663
691	690
691	692
691	719
692	664
692	691
692	693
692	720
693	665
693	692
693	694
693	721
694	666
694	693
694	695
694	722
695	667
695	694
695	696
695	723
696	668
696	695
696	697
696	724
697	669
697	696
697	698
697	725
698	670
698	697
698	699
698	726
699	671
699	698
699	700
699	727
700	672
700	699
700	701
700	728
701	673
701	700
701	702
701	729
702	674
702	701
702	703
702	730
703	675
703	702
703	704
703	731
704	676
704	703
704	705
704	732
705	677
705	704
705	706
705	733
706	678
706	705
706	707
706	734
707	679
707	706
707	708
707	735
708	680
708	707
708	709
708	736
709	681
709	708
709	710
709	737
710	682
710	709
710	711
710	738
711	683
711	710
711	739
712	684
712	713
712	740
712	2339
713	685
713	712
713	714
713	741
714	686
714	713
714	715
714	742
715	687
715	714
715	716
715	743
716	688
716	715
716	717
716	744
717	689
717	716
717	718
717	745
718	690
718	717
718	719
718	746
719	691
719	718
719	720
719	747
720	692
720	719
720	721
720	748
721	693
721	720
721	722
721	749
722	694
722	721
722	723
722	750
723	695
723	722
723	724
723	751
724	696
724	723
724	725
724	752
725	697
725	724
725	726
725	753
726	698
726	725
726	727
726	754
727	699
727	726
727	728
727	755
728	700
728	727
728	729
728	756
729	701
729	728
729	730
729	757
730	702
730	729
730	731
730	758
731	703
731	730
731	732
731	759
732	704
732	731
732	733
732	760
733	705
733	732
733	734
733	761
734	706
734	733
734	735
734	762
735	707
735	734
735	736
735	763
736	708
736	735
736	737
736	764
737	709
737	736
737	738
737	765
738	710
738	737
738	739
738	766
739	711
739	738
739	767
740	712
740	741
740	768
740	2351
741	713
741	740
741	742
741	769
742	714
742	741
742	743
742	770
743	715
743	742
743	744
743	771
744	716
744	743
744	745
744	772
745	717
745	744
745	746
745	773
746	718
746	745
746	747
746	774
747	719
747	746
747	748
747	775
748	720
748	747
748	749
748	776
749	721
749	748
749	750
749	777
750	722
750	749
750	751
750	778
751	723
751	750
751	752
751	779
752	724
752	751
752	753
752	780
753	725
753	752
753	754
753	781
754	726
754	753
754	755
754	782
755	727
755	754
755	756
755	783
756	728
756	755
756	757
756	784
757	729
757	756
757	758
757	785
758	730
758	757
758	759
758	786
759	731
759	758
759	760
759	787
760	732
760	759
760	761
760	788
761	733
761	760
761	762
761	789
762	734
762	761
762	763
762	790
763	735
763	762
763	764
763	791
764	736
764	763
764	765
764	792
765	737
765	764
765	766
765	793
766	738
766	765
766	767
766	794
767	739
767	766
767	795
768	740
768	769
768	796
768	2363
769	741
769	768
769	770
769	797
770	742
770	769
770	771
770	798
771	743
771	770
771	772
771	799
772	744
772	771
772	773
772	800
773	745
773	772
773	774
773	801
774	746
774	773
774	775
774	802
775	747
775	774
775	776
775	803
776	748
776	775
776	777
776	804
777	749
777	776
777	778
777	805
778	750
778	777
778	779
778	806
779	751
779	778
779	780
779	807
780	752
780	779
780	781
780	808
781	753
781	780
781	782
781	809
782	754
782	781
782	783
782	810
783	755
783	782
783	784
783	811
784	756
784	783
784	785
784	812
785	757
785	784
785	786
785	813
786	758
786	785
786	787
786	814
787	759
787	786
787	788
787	815
788	760
788	787
788	789
788	816
789	761
789	788
789	790
789	817
790	762
790	789
790	791
790	818
791	763
791	790
791	792
791	819
792	764
792	791
792	793
792	820
793	765
793	792
793	794
793	821
794	766
794	793
794	795
794	822
795	767
795	794
795	823
796	768
796	797
796	824
796	2375
797	769
797	796
797	798
797	825
798	770
798	797
798	799
798	826
799	771
799	798
799	800
799	827
800	772
800	799
800	801
800	828
801	773
801	800
801	802
801	829
802	774
802	801
802	803
802	830
803	775
803	802
803	804
803	831
804	776
804	803
804	805
804	832
805	777
805	804
805	806
805	833
806	778
806	805
806	807
806	834
807	779
807	806
807	808
807	835
808	780
808	807
808	809
808	836
809	781
809	808
809	810
809	837
810	782
810	809
810	811
810	838
811	783
811	810
811	812
811	839
812	784
812	811
812	813
812	840
813	785
813	812
813	814
813	841
814	786
814	813
814	815
814	842
815	787
815	814
815	816
815	843
816	788
816	815
816	817
816	844
817	789
817	816
817	818
817	845
818	790
818	817
818	819
818	846
819	791
819	818
819	820
819	847
820	792
820	819
820	821
820	848
821	793
821	820
821	822
821	849
822	794
822	821
822	823
822	850
823	795
823	822
823	851
824	796
824	825
824	852
824	2387
825	797
825	824
825	826
825	853
826	798
826	825
826	827
826	854
827	799
827	826
827	828
827	855
828	800
828	827
828	829
828	856
829	801
829	828
829	830
829	857
830	802
830	829
830	831
830	858
831	803
831	830
831	832
831	859
832	804
832	831
832	833
832	860
833	805
833	832
833	834
833	861
834	806
834	833
834	835
834	862
835	807
835	834
835	836
835	863
836	808
836	835
836	837
836	864
837	809
837	836
837	838
837	865
838	810
838	837
838	839
838	866
839	811
839	838
839	840
839	867
840	812
840	839
840	841
840	868
841	813
841	840
841	842
841	869
842	814
842	841
842	843
842	870
843	815
843	842
843	844
843	871
844	816
844	843
844	845
844	872
845	817
845	844
845	846
845	873
846	818
846	845
846	847
846	874
847	819
847	846
847	848
847	875
848	820
848	847
848	849
848	876
849	821
849	848
849	850
849	877
850	822
850	849
850	851
850	878
851	823
851	850
851	879
852	824
852	853
852	880
852	2399
853	825
853	852
853	854
853	881
854	826
854	853
854	855
854	882
855	827
855	854
855	856
855	883
856	828
856	855
856	857
856	884
857	829
857	856
857	858
857	885
858	830
858	857
858	859
858	886
859	831
859	858
859	860
859	887
860	832
860	859
860	861
860	888
861	833
861	860
861	862
861	889
862	834
862	861
862	863
862	890
863	835
863	862
863	864
863	891
864	836
864	863
864	865
864	892
865	837
865	864
865	866
865	893
866	838
866	865
866	867
866	894
867	839
867	866
867	868
867	895
868	840
868	867
868	869
868	896
869	841
869	868
869	870
869	897
870	842
870	869
870	871
870	898
871	843
871	870
871	872
871	899
872	844
872	871
872	873
872	900
873	845
873	872
873	874
873	901
874	846
874	873
874	875
874	902
875	847
875	874
875	876
875	903
876	848
876	875
876	877
876	904
877	849
877	876
877	878
877	905
878	850
878	877
878	879
878	906
879	851
879	878
879	907
880	852
880	881
880	908
880	2411
881	853
881	880
881	882
881	909
882	854
882	881
882	883
882	910
883	855
883	882
883	884
883	911
884	856
884	883
884	885
884	912
885	857
885	884
885	886
885	913
886	858
886	885
886	887
886	914
887	859
887	886
887	888
887	915
888	860
888	887
888	889
888	916
889	861
889	888
889	890
889	917
890	862
890	889
890	891
890	918
891	863
891	890
891	892
891	919
892	864
892	891
892	893
892	920
893	865
893	892
893	894
893	921
894	866
894	893
894	895
894	922
895	867
895	894
895	896
895	923
896	868
896	895
896	897
896	924
897	869
897	896
897	898
897	925
898	870
898	897
898	899
898	926
899	871
899	898
899	900
899	927
900	872
900	899
900	901
900	928
901	873
901	900
901	902
901	929
902	874
902	901
902	903
902	930
903	875
903	902
903	904
903	931
904	876
904	903
904	905
904	932
905	877
905	904
905	906
905	933
906	878
906	905
906	907
906	934
907	879
907	906
907	935
908	880
908	909
908	936
908	2423
909	881
909	908
909	910
909	937
910	882
910	909
910	911
910	938
911	883
911	910
911	912
911	939
912	884
912	911
912	913
912	940
913	885
913	912
913	914
913	941
914	886
914	913
914	915
914	942
915	887
915	914
915	916
915	943
916	888
916	915
916	917
916	944
917	889
917	916
917	918
917	945
918	890
918	917
918	919
918	946
919	891
919	918
919	920
919	947
920	892
920	919
920	921
920	948
921	893
921	920
921	922
921	949
922	894
922	921
922	923
922	950
923	895
923	922
923	924
923	951
924	896
924	923
924	925
924	952
925	897
925	924
925	926
925	953
926	898
926	925
926	927
926	954
927	899
927	926
927	928
927	955
928	900
928	927
928	929
928	956
929	901
929	928
929	930
929	957
930	902
930	929
930	931
930	958
931	903
931	930
931	932
931	959
932	904
932	931
932	933
932	960
933	905
933	932
933	934
933	961
934	906
934	933
934	935
934	962
935	907
935	934
935	963
936	908
936	937
936	964
936	2435
937	909
937	936
937	938
937	965
938	910
938	937
938	939
938	966
939	911
939	938
939	940
939	967
940	912
940	939
940	941
940	968
941	913
941	940
941	942
941	969
942	914
942	941
942	943
942	970
943	915
943	942
943	944
943	971
944	916
944	943
944	945
944	972
945	917
945	944
945	946
945	973
946	918
946	945
946	947
946	974
947	919
947	946
947	948
947	975
948	920
948	947
948	949
948	976
949	921
949	948
949	950
949	977
950	922
950	949
950	951
950	978
951	923
951	950
951	952
951	979
952	924
952	951
952	953
952	980
953	925
953	952
953	954
953	981
954	926
954	953
954	955
954	982
955	927
955	954
955	956
955	983
956	928
956	955
956	957
956	984
957	929
957	956
957	958
957	985
958	930
958	957
958	959
958	986
959	931
959	958
959	960
959	987
960	932
960	959
960	961
960	988
961	933
961	960
961	962
961	989
962	934
962	961
962	963
962	990
963	935
963	962
963	991
964	936
964	965
964	992
964	2447
965	937
965	964
965	966
965	993
966	938
966	965
966	967
966	994
967	939
967	966
967	968
967	995
968	940
968	967
968	969
968	996
969	941
969	968
969	970
969	997
970	942
970	969
970	971
970	998
971	943
971	970
971	972
971	999
972	944
972	971
972	973
972	1000
973	945
973	972
973	974
973	1001
974	946
974	973
974	975
974	1002
975	947
975	974
975	976
975	1003
976	948
976	975
976	977
976	1004
977	949
977	976
977	978
977	1005
978	950
978	977
978	979
978	1006
979	951
979	978
979	980
979	1007
980	952
980	979
980	981
980	1008
981	953
981	980
981	982
981	1009
982	954
982	981
982	983
982	1010
983	955
983	982
983	984
983	1011
984	956
984	983
984	985
984	1012
985	957
985	984
985	986
985	1013
986	958
986	985
986	987
986	1014
987	959
987	986
987	988
987	1015
988	960
988	987
988	989
988	1016
989	961
989	988
989	990
989	1017
990	962
990	989
990	991
990	1018
991	963
991	990
991	1019
992	964
992	993
992	1020
992	2459
993	965
993	992
993	994
993	1021
994	966
994	993
994	995
994	1022
995	967
995	994
995	996
995	1023
996	968
996	995
996	997
996	1024
997	969
997	996
997	998
997	1025
998	970
998	997
998	999
998	1026
999	971
999	998
999	1000
999	1027
1000	972
1000	999
1000	1001
1000	1028
1001	973
1001	1000
1001	1002
1001	1029
1002	974
1002	1001
1002	1003
1002	1030
1003	975
1003	1002
1003	1004
1003	1031
1004	976
1004	1003
1004	1005
1004	1032
1005	977
1005	1004
1005	1006
1005	1033
1006	978
1006	1005
1006	1007
1006	1034
1007	979
1007	1006
1007	1008
1007	1035
1008	980
1008	1007
1008	1009
1008	1036
1009	981
1009	1008
1009	1010
1009	1037
1010	982
1010	1009
1010	1011
1010	1038
1011	983
1011	1010
1011	1012
1011	1039
1012	984
1012	1011
1012	1013
1012	1040
1013	985
1013	1012
1013	1014
1013	1041
1014	986
1014	1013
1014	1015
1014	1042
1015	987
1015	1014
1015	1016
1015	1043
1016	988
1016	1015
1016	1017
1016	1044
1017	989
1017	1016
1017	1018
1017	1045
1018	990
1018	1017
1018	1019
1018	1046
1019	991
1019	1018
1019	1047
1020	992
1020	1021
1020	1048
1020	2471
1021	993
1021	1020
1021	1022
1021	1049
1022	994
1022	1021
1022	1023
1022	1050
1023	995
1023	1022
1023	1024
1023	1051
1024	996
1024	1023
1024	1025
1024	1052
1025	997
1025	1024
1025	1026
1025	1053
1026	998
1026	1025
1026	1027
1026	1054
1027	999
1027	1026
1027	1028
1027	1055
1028	1000
1028	1027
1028	1029
1028	1056
1029	1001
1029	1028
1029	1030
1029	1057
1030	1002
1030	1029
1030	1031
1030	1058
1031	1003
1031	1030
1031	1032
1031	1059
1032	1004
1032	1031
1032	1033
1032	1060
1033	1005
1033	1032
1033	1034
1033	1061
1034	1006
1034	1033
1034	1035
1034	1062
1035	1007
1035	1034
1035	1036
1035	1063
1036	1008
1036	1035
1036	1037
1036	1064
1037	1009
1037	1036
1037	1038
1037	1065
1038	1010
1038	1037
1038	1039
1038	1066
1039	1011
1039	1038
1039	1040
1039	1067
1040	1012
1040	1039
1040	1041
1040	1068
1041	1013
1041	1040
1041	1042
1041	1069
1042	1014
1042	1041
1042	1043
1042	1070
1043	1015
1043	1042
1043	1044
1043	1071
1044	1016
1044	1043
1044	1045
1044	1072
1045	1017
1045	1044
1045	1046
1045	1073
1046	1018
1046	1045
1046	1047
1046	1074
1047	1019
1047	1046
1047	1075
1048	1020
1048	1049
1048	1076
1048	2483
1049	1021
1049	1048
1049	1050
1049	1077
1050	1022
1050	1049
1050	1051
1050	1078
1051	1023
1051	1050
1051	1052
1051	1079
1052	1024
1052	1051
1052	1053
1052	1080
1053	1025
1053	1052
1053	1054
1053	1081
1054	1026
1054	1053
1054	1055
1054	1082
1055	1027
1055	1054
1055	1056
1055	1083
1056	1028
1056	1055
1056	1057
1056	1084
1057	1029
1057	1056
1057	1058
1057	1085
1058	1030
1058	1057
1058	1059
1058	1086
1059	1031
1059	1058
1059	1060
1059	1087
1060	1032
1060	1059
1060	1061
1060	1088
1061	1033
1061	1060
1061	1062
1061	1089
1062	1034
1062	1061
1062	1063
1062	1090
1063	1035
1063	1062
1063	1064
1063	1091
1064	1036
1064	1063
1064	1065
1064	1092
1065	1037
1065	1064
1065	1066
1065	1093
1066	1038
1066	1065
1066	1067
1066	1094
1067	1039
1067	1066
1067	1068
1067	1095
1068	1040
1068	1067
1068	1069
1068	1096
1069	1041
1069	1068
1069	1070
1069	1097
1070	1042
1070	1069
1070	1071
1070	1098
1071	1043
1071	1070
1071	1072
1071	1099
1072	1044
1072	1071
1072	1073
1072	1100
1073	1045
1073	1072
1073	1074
1073	1101
1074	1046
1074	1073
1074	1075
1074	1102
1075	1047
1075	1074
1075	1103
1076	1048
1076	1077
1076	1104
1076	2495
1077	1049
1077	1076
1077	1078
1077	1105
1078	1050
1078	1077
1078	1079
1078	1106
1079	1051
1079	1078
1079	1080
1079	1107
1080	1052
1080	1079
1080	1081
1080	1108
1081	1053
1081	1080
1081	1082
1081	1109
1082	1054
1082	1081
1082	1083
1082	1110
1083	1055
1083	1082
1083	1084
1083	1111
1084	1056
1084	1083
1084	1085
1084	1112
1085	1057
1085	1084
1085	1086
1085	1113
1086	1058
1086	1085
1086	1087
1086	1114
1087	1059
1087	1086
1087	1088
1087	1115
1088	1060
1088	1087
1088	1089
1088	1116
1089	1061
1089	1088
1089	1090
1089	1117
1090	1062
1090	1089
1090	1091
1090	1118
1091	1063
1091	1090
1091	1092
1091	1119
1092	1064
1092	1091
1092	1093
1092	1120
1093	1065
1093	1092
1093	1094
1093	1121
1094	1066
1094	1093
1094	1095
1094	1122
1095	1067
1095	1094
1095	1096
1095	1123
1096	1068
1096	1095
1096	1097
1096	1124
1097	1069
1097	1096
1097	1098
1097	1125
1098	1070
1098	1097
1098	1099
1098	1126
1099	1071
1099	1098
1099	1100
1099	1127
1100	1072
1100	1099
1100	1101
1100	1128
1101	1073
1101	1100
1101	1102
1101	1129
1102	1074
1102	1101
1102	1103
1102	1130
1103	1075
1103	1102
1103	1131
1104	1076
1104	1105
1104	1132
1104	2507
1105	1077
1105	1104
1105	1106
1105	1133
1106	1078
1106	1105
1106	1107
1106	1134
1107	1079
1107	1106
1107	1108
1107	1135
1108	1080
1108	1107
1108	1109
1108	1136
1109	1081
1109	1108
1109	1110
1109	1137
1110	1082
1110	1109
1110	1111
1110	1138
1111	1083
1111	1110
1111	1112
1111	1139
1112	1084
1112	1111
1112	1113
1112	1140
1113	1085
1113	1112
1113	1114
1113	1141
1114	1086
1114	1113
1114	1115
1114	1142
1115	1087
1115	1114
1115	1116
1115	1143
1116	1088
1116	1115
1116	1117
1116	1144
1117	1089
1117	1116
1117	1118
1117	1145
1118	1090
1118	1117
1118	1119
1118	1146
1119	1091
1119	1118
1119	1120
1119	1147
1120	1092
1120	1119
1120	1121
1120	1148
1121	1093
1121	1120
1121	1122
1121	1149
1122	1094
1122	1121
1122	1123
1122	1150
1123	1095
1123	1122
1123	1124
1123	1151
1124	1096
1124	1123
1124	1125
1124	1152
1125	1097
1125	1124
1125	1126
1125	1153
1126	1098
1126	1125
1126	1127
1126	1154
1127	1099
1127	1126
1127	1128
1127	1155
1128	1100
1128	1127
1128	1129
1128	1156
1129	1101
1129	1128
1129	1130
1129	1157
1130	1102
1130	1129
1130	1131
1130	1158
1131	1103
1131	1130
1131	1159
1132	1104
1132	1133
1132	1160
1132	2519
1133	1105
1133	1132
1133	1134
1133	1161
1134	1106
1134	1133
1134	1135
1134	1162
1135	1107
1135	1134
1135	1136
1135	1163
1136	1108
1136	1135
1136	1137
1136	1164
1137	1109
1137	1136
1137	1138
1137	1165
1138	1110
1138	1137
1138	1139
1138	1166
1139	1111
1139	1138
1139	1140
1139	1167
1140	1112
1140	1139
1140	1141
1140	1168
1141	1113
1141	1140
1141	1142
1141	1169
1142	1114
1142	1141
1142	1143
1142	1170
1143	1115
1143	1142
1143	1144
1143	1171
1144	1116
1144	1143
1144	1145
1144	1172
1145	1117
1145	1144
1145	1146
1145	1173
1146	1118
1146	1145
1146	1147
1146	1174
1147	1119
1147	1146
1147	1148
1147	1175
1148	1120
1148	1147
1148	1149
1148	1176
1149	1121
1149	1148
1149	1150
1149	1177
1150	1122
1150	1149
1150	1151
1150	1178
1151	1123
1151	1150
1151	1152
1151	1179
1152	1124
1152	1151
1152	1153
1152	1180
1153	1125
1153	1152
1153	1154
1153	1181
1154	1126
1154	1153
1154	1155
1154	1182
1155	1127
1155	1154
1155	1156
1155	1183
1156	1128
1156	1155
1156	1157
1156	1184
1157	1129
1157	1156
1157	1158
1157	1185
1158	1130
1158	1157
1158	1159
1158	1186
1159	1131
1159	1158
1159	1187
1160	1132
1160	1161
1160	1188
1160	2531
1161	1133
1161	1160
1161	1162
1161	1189
1162	1134
1162	1161
1162	1163
1162	1190
1163	1135
1163	1162
1163	1164
1163	1191
1164	1136
1164	1163
1164	1165
1164	1192
1165	1137
1165	1164
1165	1166
1165	1193
1166	1138
1166	1165
1166	1167
1166	1194
1167	1139
1167	1166
1167	1168
1167	1195
1168	1140
1168	1167
1168	1169
1168	1196
1169	1141
1169	1168
1169	1170
1169	1197
1170	1142
1170	1169
1170	1171
1170	1198
1171	1143
1171	1170
1171	1172
1171	1199
1172	1144
1172	1171
1172	1173
1172	1200
1173	1145
1173	1172
1173	1174
1173	1201
1174	1146
1174	1173
1174	1175
1174	1202
1175	1147
1175	1174
1175	1176
1175	1203
1176	1148
1176	1175
1176	1177
1176	1204
1177	1149
1177	1176
1177	1178
1177	1205
1178	1150
1178	1177
1178	1179
1178	1206
1179	1151
1179	1178
1179	1180
1179	1207
1180	1152
1180	1179
1180	1181
1180	1208
1181	1153
1181	1180
1181	1182
1181	1209
1182	1154
1182	1181
1182	1183
1182	1210
1183	1155
1183	1182
1183	1184
1183	1211
1184	1156
1184	1183
1184	1185
1184	1212
1185	1157
1185	1184
1185	1186
1185	1213
1186	1158
1186	1185
1186	1187
1186	1214
1187	1159
1187	1186
1187	1215
1188	1160
1188	1189
1188	1216
1188	2543
1189	1161
1189	1188
1189	1190
1189	1217
1190	1162
1190	1189
1190	1191
1190	1218
1191	1163
1191	1190
1191	1192
1191	1219
1192	1164
1192	1191
1192	1193
1192	1220
1193	1165
1193	1192
1193	1194
1193	1221
1194	1166
1194	1193
1194	1195
1194	1222
1195	1167
1195	1194
1195	1196
1195	1223
1196	1168
1196	1195
1196	1197
1196	1224
1197	1169
1197	1196
1197	1198
1197	1225
1198	1170
1198	1197
1198	1199
1198	1226
1199	1171
1199	1198
1199	1200
1199	1227
1200	1172
1200	1199
1200	1201
1200	1228
1201	1173
1201	1200
1201	1202
1201	1229
1202	1174
1202	1201
1202	1203
1202	1230
1203	1175
1203	1202
1203	1204
1203	1231
1204	1176
1204	1203
1204	1205
1204	1232
1205	1177
1205	1204
1205	1206
1205	1233
1206	1178
1206	1205
1206	1207
1206	1234
1207	1179
1207	1206
1207	1208
1207	1235
1208	1180
1208	1207
1208	1209
1208	1236
1209	1181
1209	1208
1209	1210
1209	1237
1210	1182
1210	1209
1210	1211
1210	1238
1211	1183
1211	1210
1211	1212
1211	1239
1212	1184
1212	1211
1212	1213
1212	1240
1213	1185
1213	1212
1213	1214
1213	1241
1214	1186
1214	1213
1214	1215
1214	1242
1215	1187
1215	1214
1215	1243
1216	1188
1216	1217
1216	1244
1216	2555
1217	1189
1217	1216
1217	1218
1217	1245
1218	1190
1218	1217
1218	1219
1218	1246
1219	1191
1219	1218
1219	1220
1219	1247
1220	1192
1220	1219
1220	1221
1220	1248
1221	1193
1221	1220
1221	1222
1221	1249
1222	1194
1222	1221
1222	1223
1222	1250
1223	1195
1223	1222
1223	1224
1223	1251
1224	1196
1224	1223
1224	1225
1224	1252
1225	1197
1225	1224
1225	1226
1225	1253
1226	1198
1226	1225
1226	1227
1226	1254
1227	1199
1227	1226
1227	1228
1227	1255
1228	1200
1228	1227
1228	1229
1228	1256
1229	1201
1229	1228
1229	1230
1229	1257
1230	1202
1230	1229
1230	1231
1230	1258
1231	1203
1231	1230
1231	1232
1231	1259
1232	1204
1232	1231
1232	1233
1232	1260
1233	1205
1233	1232
1233	1234
1233	1261
1234	1206
1234	1233
1234	1235
1234	1262
1235	1207
1235	1234
1235	1236
1235	1263
1236	1208
1236	1235
1236	1237
1236	1264
1237	1209
1237	1236
1237	1238
1237	1265
1238	1210
1238	1237
1238	1239
1238	1266
1239	1211
1239	1238
1239	1240
1239	1267
1240	1212
1240	1239
1240	1241
1240	1268
1241	1213
1241	1240
1241	1242
1241	1269
1242	1214
1242	1241
1242	1243
1242	1270
1243	1215
1243	1242
1243	1271
1244	1216
1244	1245
1244	1272
1244	2567
1245	1217
1245	1244
1245	1246
1245	1273
1246	1218
1246	1245
1246	1247
1246	1274
1247	1219
1247	1246
1247	1248
1247	1275
1248	1220
1248	1247
1248	1249
1248	1276
1249	1221
1249	1248
1249	1250
1249	1277
1250	1222
1250	1249
1250	1251
1250	1278
1251	1223
1251	1250
1251	1252
1251	1279
1252	1224
1252	1251
1252	1253
1252	1280
1253	1225
1253	1252
1253	1254
1253	1281
1254	1226
1254	1253
1254	1255
1254	1282
1255	1227
1255	1254
1255	1256
1255	1283
1256	1228
1256	1255
1256	1257
1256	1284
1257	1229
1257	1256
1257	1258
1257	1285
1258	1230
1258	1257
1258	1259
1258	1286
1259	1231
1259	1258
1259	1260
1259	1287
1260	1232
1260	1259
1260	1261
1260	1288
1261	1233
1261	1260
1261	1262
1261	1289
1262	1234
1262	1261
1262	1263
1262	1290
1263	1235
1263	1262
1263	1264
1263	1291
1264	1236
1264	1263
1264	1265
1264	1292
1265	1237
1265	1264
1265	1266
1265	1293
1266	1238
1266	1265
1266	1267
1266	1294
1267	1239
1267	1266
1267	1268
1267	1295
1268	1240
1268	1267
1268	1269
1268	1296
1269	1241
1269	1268
1269	1270
1269	1297
1270	1242
1270	1269
1270	1271
1270	1298
1271	1243
1271	1270
1271	1299
1272	1244
1272	1273
1272	1300
1272	2579
1273	1245
1273	1272
1273	1274
1273	1301
1274	1246
1274	1273
1274	1275
1274	1302
1275	1247
1275	1274
1275	1276
1275	1303
1276	1248
1276	1275
1276	1277
1276	1304
1277	1249
1277	1276
1277	1278
1277	1305
1278	1250
1278	1277
1278	1279
1278	1306
1279	1251
1279	1278
1279	1280
1279	1307
1280	1252
1280	1279
1280	1281
1280	1308
1281	1253
1281	1280
1281	1282
1281	1309
1282	1254
1282	1281
1282	1283
1282	1310
1283	1255
1283	1282
1283	1284
1283	1311
1284	1256
1284	1283
1284	1285
1284	1312
1285	1257
1285	1284
1285	1286
1285	1313
1286	1258
1286	1285
1286	1287
1286	1314
1287	1259
1287	1286
1287	1288
1287	1315
1288	1260
1288	1287
1288	1289
1288	1316
1289	1261
1289	1288
1289	1290
1289	1317
1290	1262
1290	1289
1290	1291
1290	1318
1291	1263
1291	1290
1291	1292
1291	1319
1292	1264
1292	1291
1292	1293
1292	1320
1293	1265
1293	1292
1293	1294
1293	1321
1294	1266
1294	1293
1294	1295
1294	1322
1295	1267
1295	1294
1295	1296
1295	1323
1296	1268
1296	1295
1296	1297
1296	1324
1297	1269
1297	1296
1297	1298
1297	1325
1298	1270
1298	1297
1298	1299
1298	1326
1299	1271
1299	1298
1299	1327
1300	1272
1300	1301
1300	1328
1300	2591
1301	1273
1301	1300
1301	1302
1301	1329
1302	1274
1302	1301
1302	1303
1302	1330
1303	1275
1303	1302
1303	1304
1303	1331
1304	1276
1304	1303
1304	1305
1304	1332
1305	1277
1305	1304
1305	1306
1305	1333
1306	1278
1306	1305
1306	1307
1306	1334
1307	1279
1307	1306
1307	1308
1307	1335
1308	1280
1308	1307
1308	1309
1308	1336
1309	1281
1309	1308
1309	1310
1309	1337
1310	1282
1310	1309
1310	1311
1310	1338
1311	1283
1311	1310
1311	1312
1311	1339
1312	1284
1312	1311
1312	1313
1312	1340
1313	1285
1313	1312
1313	1314
1313	1341
1314	1286
1314	1313
1314	1315
1314	1342
1315	1287
1315	1314
1315	1316
1315	1343
1316	1288
1316	1315
1316	1317
1316	1344
1317	1289
1317	1316
1317	1318
1317	1345
1318	1290
1318	1317
1318	1319
1318	1346
1319	1291
1319	1318
1319	1320
1319	1347
1320	1292
1320	1319
1320	1321
1320	1348
1321	1293
1321	1320
1321	1322
1321	1349
1322	1294
1322	1321
1322	1323
1322	1350
1323	1295
1323	1322
1323	1324
1323	1351
1324	1296
1324	1323
1324	1325
1324	1352
1325	1297
1325	1324
1325	1326
1325	1353
1326	1298
1326	1325
1326	1327
1326	1354
1327	1299
1327	1326
1327	1355
1328	1300
1328	1329
1328	1356
1328	2603
1329	1301
1329	1328
1329	1330
1329	1357
1330	1302
1330	1329
1330	1331
1330	1358
1331	1303
1331	1330
1331	1332
1331	1359
1332	1304
1332	1331
1332	1333
1332	1360
1333	1305
1333	1332
1333	1334
1333	1361
1334	1306
1334	1333
1334	1335
1334	1362
1335	1307
1335	1334
1335	1336
1335	1363
1336	1308
1336	1335
1336	1337
1336	1364
1337	1309
1337	1336
1337	1338
1337	1365
1338	1310
1338	1337
1338	1339
1338	1366
1339	1311
1339	1338
1339	1340
1339	1367
1340	1312
1340	1339
1340	1341
1340	1368
1341	1313
1341	1340
1341	1342
1341	1369
1342	1314
1342	1341
1342	1343
1342	1370
1343	1315
1343	1342
1343	1344
1343	1371
1344	1316
1344	1343
1344	1345
1344	1372
1345	1317
1345	1344
1345	1346
1345	1373
1346	1318
1346	1345
1346	1347
1346	1374
1347	1319
1347	1346
1347	1348
1347	1375
1348	1320
1348	1347
1348	1349
1348	1376
1349	1321
1349	1348
1349	1350
1349	1377
1350	1322
1350	1349
1350	1351
1350	1378
1351	1323
1351	1350
1351	1352
1351	1379
1352	1324
1352	1351
1352	1353
1352	1380
1353	1325
1353	1352
1353	1354
1353	1381
1354	1326
1354	1353
1354	1355
1354	1382
1355	1327
1355	1354
1355	1383
1356	1328
1356	1357
1356	1384
1356	2615
1357	1329
1357	1356
1357	1358
1357	1385
1358	1330
1358	1357
1358	1359
1358	1386
1359	1331
1359	1358
1359	1360
1359	1387
1360	1332
1360	1359
1360	1361
1360	1388
1361	1333
1361	1360
1361	1362
1361	1389
1362	1334
1362	1361
1362	1363
1362	1390
1363	1335
1363	1362
1363	1364
1363	1391
1364	1336
1364	1363
1364	1365
1364	1392
1365	1337
1365	1364
1365	1366
1365	1393
1366	1338
1366	1365
1366	1367
1366	1394
1367	1339
1367	1366
1367	1368
1367	1395
1368	1340
1368	1367
1368	1369
1368	1396
1369	1341
1369	1368
1369	1370
1369	1397
1370	1342
1370	1369
1370	1371
1370	1398
1371	1343
1371	1370
1371	1372
1371	1399
1372	1344
1372	1371
1372	1373
1372	1400
1373	1345
1373	1372
1373	1374
1373	1401
1374	1346
1374	1373
1374	1375
1374	1402
1375	1347
1375	1374
1375	1376
1375	1403
1376	1348
1376	1375
1376	1377
1376	1404
1377	1349
1377	1376
1377	1378
1377	1405
1378	1350
1378	1377
1378	1379
1378	1406
1379	1351
1379	1378
1379	1380
1379	1407
1380	1352
1380	1379
1380	1381
1380	1408
1381	1353
1381	1380
1381	1382
1381	1409
1382	1354
1382	1381
1382	1383
1382	1410
1383	1355
1383	1382
1383	1411
1384	1356
1384	1385
1384	1412
1384	2627
1385	1357
1385	1384
1385	1386
1385	1413
1386	1358
1386	1385
1386	1387
1386	1414
1387	1359
1387	1386
1387	1388
1387	1415
1388	1360
1388	1387
1388	1389
1388	1416
1389	1361
1389	1388
1389	1390
1389	1417
1390	1362
1390	1389
1390	1391
1390	1418
1391	1363
1391	1390
1391	1392
1391	1419
1392	1364
1392	1391
1392	1393
1392	1420
1393	1365
1393	1392
1393	1394
1393	1421
1394	1366
1394	1393
1394	1395
1394	1422
1395	1367
1395	1394
1395	1396
1395	1423
1396	1368
1396	1395
1396	1397
1396	1424
1397	1369
1397	1396
1397	1398
1397	1425
1398	1370
1398	1397
1398	1399
1398	1426
1399	1371
1399	1398
1399	1400
1399	1427
1400	1372
1400	1399
1400	1401
1400	1428
1401	1373
1401	1400
1401	1402
1401	1429
1402	1374
1402	1401
1402	1403
1402	1430
1403	1375
1403	1402
1403	1404
1403	1431
1404	1376
1404	1403
1404	1405
1404	1432
1405	1377
1405	1404
1405	1406
1405	1433
1406	1378
1406	1405
1406	1407
1406	1434
1407	1379
1407	1406
1407	1408
1407	1435
1408	1380
1408	1407
1408	1409
1408	1436
1409	1381
1409	1408
1409	1410
1409	1437
1410	1382
1410	1409
1410	1411
1410	1438
1411	1383
1411	1410
1411	1439
1412	1384
1412	1413
1412	1440
1412	2639
1413	1385
1413	1412
1413	1414
1413	1441
1414	1386
1414	1413
1414	1415
1414	1442
1415	1387
1415	1414
1415	1416
1415	1443
1416	1388
1416	1415
1416	1417
1416	1444
1417	1389
1417	1416
1417	1418
1417	1445
1418	1390
1418	1417
1418	1419
1418	1446
1419	1391
1419	1418
1419	1420
1419	1447
1420	1392
1420	1419
1420	1421
1420	1448
1421	1393
1421	1420
1421	1422
1421	1449
1422	1394
1422	1421
1422	1423
1422	1450
1423	1395
1423	1422
1423	1424
1423	1451
1424	1396
1424	1423
1424	1425
1424	1452
1425	1397
1425	1424
1425	1426
1425	1453
1426	1398
1426	1425
1426	1427
1426	1454
1427	1399
1427	1426
1427	1428
1427	1455
1428	1400
1428	1427
1428	1429
1428	1456
1429	1401
1429	1428
1429	1430
1429	1457
1430	1402
1430	1429
1430	1431
1430	1458
1431	1403
1431	1430
1431	1432
1431	1459
1432	1404
1432	1431
1432	1433
1432	1460
1433	1405
1433	1432
1433	1434
1433	1461
1434	1406
1434	1433
1434	1435
1434	1462
1435	1407
1435	1434
1435	1436
1435	1463
1436	1408
1436	1435
1436	1437
1436	1464
1437	1409
1437	1436
1437	1438
1437	1465
1438	1410
1438	1437
1438	1439
1438	1466
1439	1411
1439	1438
1439	1467
1440	1412
1440	1441
1440	1468
1440	2651
1441	1413
1441	1440
1441	1442
1441	1469
1442	1414
1442	1441
1442	1443
1442	1470
1443	1415
1443	1442
1443	1444
1443	1471
1444	1416
1444	1443
1444	1445
1444	1472
1445	1417
1445	1444
1445	1446
1445	1473
1446	1418
1446	1445
1446	1447
1446	1474
1447	1419
1447	1446
1447	1448
1447	1475
1448	1420
1448	1447
1448	1449
1448	1476
1449	1421
1449	1448
1449	1450
1449	1477
1450	1422
1450	1449
1450	1451
1450	1478
1451	1423
1451	1450
1451	1452
1451	1479
1452	1424
1452	1451
1452	1453
1452	1480
1453	1425
1453	1452
1453	1454
1453	1481
1454	1426
1454	1453
1454	1455
1454	1482
1455	1427
1455	1454
1455	1456
1455	1483
1456	1428
1456	1455
1456	1457
1456	1484
1457	1429
1457	1456
1457	1458
1457	1485
1458	1430
1458	1457
1458	1459
1458	1486
1459	1431
1459	1458
1459	1460
1459	1487
1460	1432
1460	1459
1460	1461
1460	1488
1461	1433
1461	1460
1461	1462
1461	1489
1462	1434
1462	1461
1462	1463
1462	1490
1463	1435
1463	1462
1463	1464
1463	1491
1464	1436
1464	1463
1464	1465
1464	1492
1465	1437
1465	1464
1465	1466
1465	1493
1466	1438
1466	1465
1466	1467
1466	1494
1467	1439
1467	1466
1467	1495
1468	1440
1468	1469
1468	1496
1468	2663
1469	1441
1469	1468
1469	1470
1469	1497
1470	1442
1470	1469
1470	1471
1470	1498
1471	1443
1471	1470
1471	1472
1471	1499
1472	1444
1472	1471
1472	1473
1472	1500
1473	1445
1473	1472
1473	1474
1473	1501
1474	1446
1474	1473
1474	1475
1474	1502
1475	1447
1475	1474
1475	1476
1475	1503
1476	1448
1476	1475
1476	1477
1476	1504
1477	1449
1477	1476
1477	1478
1477	1505
1478	1450
1478	1477
1478	1479
1478	1506
1479	1451
1479	1478
1479	1480
1479	1507
1480	1452
1480	1479
1480	1481
1480	1508
1481	1453
1481	1480
1481	1482
1481	1509
1482	1454
1482	1481
1482	1483
1482	1510
1483	1455
1483	1482
1483	1484
1483	1511
1484	1456
1484	1483
1484	1485
1484	1512
1485	1457
1485	1484
1485	1486
1485	1513
1486	1458
1486	1485
1486	1487
1486	1514
1487	1459
1487	1486
1487	1488
1487	1515
1488	1460
1488	1487
1488	1489
1488	1516
1489	1461
1489	1488
1489	1490
1489	1517
1490	1462
1490	1489
1490	1491
1490	1518
1491	1463
1491	1490
1491	1492
1491	1519
1492	1464
1492	1491
1492	1493
1492	1520
1493	1465
1493	1492
1493	1494
1493	1521
1494	1466
1494	1493
1494	1495
1494	1522
1495	1467
1495	1494
1495	1523
1496	1468
1496	1497
1496	1524
1496	2675
1497	1469
1497	1496
1497	1498
1497	1525
1498	1470
1498	1497
1498	1499
1498	1526
1499	1471
1499	1498
1499	1500
1499	1527
1500	1472
1500	1499
1500	1501
1500	1528
1501	1473
1501	1500
1501	1502
1501	1529
1502	1474
1502	1501
1502	1503
1502	1530
1503	1475
1503	1502
1503	1504
1503	1531
1504	1476
1504	1503
1504	1505
1504	1532
1505	1477
1505	1504
1505	1506
1505	1533
1506	1478
1506	1505
1506	1507
1506	1534
1507	1479
1507	1506
1507	1508
1507	1535
1508	1480
1508	1507
1508	1509
1508	1536
1509	1481
1509	1508
1509	1510
1509	1537
1510	1482
1510	1509
1510	1511
1510	1538
1511	1483
1511	1510
1511	1512
1511	1539
1512	1484
1512	1511
1512	1513
1512	1540
1513	1485
1513	1512
1513	1514
1513	1541
1514	1486
1514	1513
1514	1515
1514	1542
1515	1487
1515	1514
1515	1516
1515	1543
1516	1488
1516	1515
1516	1517
1516	1544
1517	1489
1517	1516
1517	1518
1517	1545
1518	1490
1518	1517
1518	1519
1518	1546
1519	1491
1519	1518
1519	1520
1519	1547
1520	1492
1520	1519
1520	1521
1520	1548
1521	1493
1521	1520
1521	1522
1521	1549
1522	1494
1522	1521
1522	1523
1522	1550
1523	1495
1523	1522
1523	1551
1524	1496
1524	1525
1524	1552
1524	2687
1525	1497
1525	1524
1525	1526
1525	1553
1526	1498
1526	1525
1526	1527
1526	1554
1527	1499
1527	1526
1527	1528
1527	1555
1528	1500
1528	1527
1528	1529
1528	1556
1529	1501
1529	1528
1529	1530
1529	1557
1530	1502
1530	1529
1530	1531
1530	1558
1531	1503
1531	1530
1531	1532
1531	1559
1532	1504
1532	1531
1532	1533
1532	1560
1533	1505
1533	1532
1533	1534
1533	1561
1534	1506
1534	1533
1534	1535
1534	1562
1535	1507
1535	1534
1535	1536
1535	1563
1536	1508
1536	1535
1536	1537
1536	1564
1537	1509
1537	1536
1537	1538
1537	1565
1538	1510
1538	1537
1538	1539
1538	1566
1539	1511
1539	1538
1539	1540
1539	1567
1540	1512
1540	1539
1540	1541
1540	1568
1541	1513
1541	1540
1541	1542
1541	1569
1542	1514
1542	1541
1542	1543
1542	1570
1543	1515
1543	1542
1543	1544
1543	1571
1544	1516
1544	1543
1544	1545
1544	1572
1545	1517
1545	1544
1545	1546
1545	1573
1546	1518
1546	1545
1546	1547
1546	1574
1547	1519
1547	1546
1547	1548
1547	1575
1548	1520
1548	1547
1548	1549
1548	1576
1549	1521
1549	1548
1549	1550
1549	1577
1550	1522
1550	1549
1550	1551
1550	1578
1551	1523
1551	1550
1551	1579
1552	1524
1552	1553
1552	1580
1552	2699
1553	1525
1553	1552
1553	1554
1553	1581
1554	1526
1554	1553
1554	1555
1554	1582
1555	1527
1555	1554
1555	1556
1555	1583
1556	1528
1556	1555
1556	1557
1556	1584
1557	1529
1557	1556
1557	1558
1557	1585
1558	1530
1558	1557
1558	1559
1558	1586
1559	1531
1559	1558
1559	1560
1559	1587
1560	1532
1560	1559
1560	1561
1560	1588
1561	1533
1561	1560
1561	1562
1561	1589
1562	1534
1562	1561
1562	1563
1562	1590
1563	1535
1563	1562
1563	1564
1563	1591
1564	1536
1564	1563
1564	1565
1564	1592
1565	1537
1565	1564
1565	1566
1565	1593
1566	1538
1566	1565
1566	1567
1566	1594
1567	1539
1567	1566
1567	1568
1567	1595
1568	1540
1568	1567
1568	1569
1568	1596
1569	1541
1569	1568
1569	1570
1569	1597
1570	1542
1570	1569
1570	1571
1570	1598
1571	1543
1571	1570
1571	1572
1571	1599
1572	1544
1572	1571
1572	1573
1572	1600
1573	1545
1573	1572
1573	1574
1573	1601
1574	1546
1574	1573
1574	1575
1574	1602
1575	1547
1575	1574
1575	1576
1575	1603
1576	1548
1576	1575
1576	1577
1576	1604
1577	1549
1577	1576
1577	1578
1577	1605
1578	1550
1578	1577
1578	1579
1578	1606
1579	1551
1579	1578
1579	1607
1580	1552
1580	1581
1580	1608
1580	2711
1581	1553
1581	1580
1581	1582
1581	1609
1582	1554
1582	1581
1582	1583
1582	1610
1583	1555
1583	1582
1583	1584
1583	1611
1584	1556
1584	1583
1584	1585
1584	1612
1585	1557
1585	1584
1585	1586
1585	1613
1586	1558
1586	1585
1586	1587
1586	1614
1587	1559
1587	1586
1587	1588
1587	1615
1588	1560
1588	1587
1588	1589
1588	1616
1589	1561
1589	1588
1589	1590
1589	1617
1590	1562
1590	1589
1590	1591
1590	1618
1591	1563
1591	1590
1591	1592
1591	1619
1592	1564
1592	1591
1592	1593
1592	1620
1593	1565
1593	1592
1593	1594
1593	1621
1594	1566
1594	1593
1594	1595
1594	1622
1595	1567
1595	1594
1595	1596
1595	1623
1596	1568
1596	1595
1596	1597
1596	1624
1597	1569
1597	1596
1597	1598
1597	1625
1598	1570
1598	1597
1598	1599
1598	1626
1599	1571
1599	1598
1599	1600
1599	1627
1600	1572
1600	1599
1600	1601
1600	1628
1601	1573
1601	1600
1601	1602
1601	1629
1602	1574
1602	1601
1602	1603
1602	1630
1603	1575
1603	1602
1603	1604
1603	1631
1604	1576
1604	1603
1604	1605
1604	1632
1605	1577
1605	1604
1605	1606
1605	1633
1606	1578
1606	1605
1606	1607
1606	1634
1607	1579
1607	1606
1607	1635
1608	1580
1608	1609
1608	1636
1608	2723
1609	1581
1609	1608
1609	1610
1609	1637
1610	1582
1610	1609
1610	1611
1610	1638
1611	1583
1611	1610
1611	1612
1611	1639
1612	1584
1612	1611
1612	1613
1612	1640
1613	1585
1613	1612
1613	1614
1613	1641
1614	1586
1614	1613
1614	1615
1614	1642
1615	1587
1615	1614
1615	1616
1615	1643
1616	1588
1616	1615
1616	1617
1616	1644
1617	1589
1617	1616
1617	1618
1617	1645
1618	1590
1618	1617
1618	1619
1618	1646
1619	1591
1619	1618
1619	1620
1619	1647
1620	1592
1620	1619
1620	1621
1620	1648
1621	1593
1621	1620
1621	1622
1621	1649
1622	1594
1622	1621
1622	1623
1622	1650
1623	1595
1623	1622
1623	1624
1623	1651
1624	1596
1624	1623
1624	1625
1624	1652
1625	1597
1625	1624
1625	1626
1625	1653
1626	1598
1626	1625
1626	1627
1626	1654
1627	1599
1627	1626
1627	1628
1627	1655
1628	1600
1628	1627
1628	1629
1628	1656
1629	1601
1629	1628
1629	1630
1629	1657
1630	1602
1630	1629
1630	1631
1630	1658
1631	1603
1631	1630
1631	1632
1631	1659
1632	1604
1632	1631
1632	1633
1632	1660
1633	1605
1633	1632
1633	1634
1633	1661
1634	1606
1634	1633
1634	1635
1634	1662
1635	1607
1635	1634
1635	1663
1636	1608
1636	1637
1636	1664
1636	2735
1637	1609
1637	1636
1637	1638
1637	1665
1638	1610
1638	1637
1638	1639
1638	1666
1639	1611
1639	1638
1639	1640
1639	1667
1640	1612
1640	1639
1640	1641
1640	1668
1641	1613
1641	1640
1641	1642
1641	1669
1642	1614
1642	1641
1642	1643
1642	1670
1643	1615
1643	1642
1643	1644
1643	1671
1644	1616
1644	1643
1644	1645
1644	1672
1645	1617
1645	1644
1645	1646
1645	1673
1646	1618
1646	1645
1646	1647
1646	1674
1647	1619
1647	1646
1647	1648
1647	1675
1648	1620
1648	1647
1648	1649
1648	1676
1649	1621
1649	1648
1649	1650
1649	1677
1650	1622
1650	1649
1650	1651
1650	1678
1651	1623
1651	1650
1651	1652
1651	1679
1652	1624
1652	1651
1652	1653
1652	1680
1653	1625
1653	1652
1653	1654
1653	1681
1654	1626
1654	1653
1654	1655
1654	1682
1655	1627
1655	1654
1655	1656
1655	1683
1656	1628
1656	1655
1656	1657
1656	1684
1657	1629
1657	1656
1657	1658
1657	1685
1658	1630
1658	1657
1658	1659
1658	1686
1659	1631
1659	1658
1659	1660
1659	1687
1660	1632
1660	1659
1660	1661
1660	1688
1661	1633
1661	1660
1661	1662
1661	1689
1662	1634
1662	1661
1662	1663
1662	1690
1663	1635
1663	1662
1663	1691
1664	1636
1664	1665
1664	1692
1664	2747
1665	1637
1665	1664
1665	1666
1665	1693
1666	1638
1666	1665
1666	1667
1666	1694
1667	1639
1667	1666
1667	1668
1667	1695
1668	1640
1668	1667
1668	1669
1668	1696
1669	1641
1669	1668
1669	1670
1669	1697
1670	1642
1670	1669
1670	1671
1670	1698
1671	1643
1671	1670
1671	1672
1671	1699
1672	1644
1672	1671
1672	1673
1672	1700
1673	1645
1673	1672
1673	1674
1673	1701
1674	1646
1674	1673
1674	1675
1674	1702
1675	1647
1675	1674
1675	1676
1675	1703
1676	1648
1676	1675
1676	1677
1676	1704
1677	1649
1677	1676
1677	1678
1677	1705
1678	1650
1678	1677
1678	1679
1678	1706
1679	1651
1679	1678
1679	1680
1679	1707
1680	1652
1680	1679
1680	1681
1680	1708
1681	1653
1681	1680
1681	1682
1681	1709
1682	1654
1682	1681
1682	1683
1682	1710
1683	1655
1683	1682
1683	1684
1683	1711
1684	1656
1684	1683
1684	1685
1684	1712
1685	1657
1685	1684
1685	1686
1685	1713
1686	1658
1686	1685
1686	1687
1686	1714
1687	1659
1687	1686
1687	1688
1687	1715
1688	1660
1688	1687
1688	1689
1688	1716
1689	1661
1689	1688
1689	1690
1689	1717
1690	1662
1690	1689
1690	1691
1690	1718
1691	1663
1691	1690
1691	1719
1692	1664
1692	1693
1692	1720
1692	2759
1693	1665
1693	1692
1693	1694
1693	1721
1694	1666
1694	1693
1694	1695
1694	1722
1695	1667
1695	1694
1695	1696
1695	1723
1696	1668
1696	1695
1696	1697
1696	1724
1697	1669
1697	1696
1697	1698
1697	1725
1698	1670
1698	1697
1698	1699
1698	1726
1699	1671
1699	1698
1699	1700
1699	1727
1700	1672
1700	1699
1700	1701
1700	1728
1701	1673
1701	1700
1701	1702
1701	1729
1702	1674
1702	1701
1702	1703
1702	1730
1703	1675
1703	1702
1703	1704
1703	1731
1704	1676
1704	1703
1704	1705
1704	1732
1705	1677
1705	1704
1705	1706
1705	1733
1706	1678
1706	1705
1706	1707
1706	1734
1707	1679
1707	1706
1707	1708
1707	1735
1708	1680
1708	1707
1708	1709
1708	1736
1709	1681
1709	1708
1709	1710
1709	1737
1710	1682
1710	1709
1710	1711
1710	1738
1711	1683
1711	1710
1711	1712
1711	1739
1712	1684
1712	1711
1712	1713
1712	1740
1713	1685
1713	1712
1713	1714
1713	1741
1714	1686
1714	1713
1714	1715
1714	1742
1715	1687
1715	1714
1715	1716
1715	1743
1716	1688
1716	1715
1716	1717
1716	1744
1717	1689
1717	1716
1717	1718
1717	1745
1718	1690
1718	1717
1718	1719
1718	1746
1719	1691
1719	1718
1719	1747
1720	1692
1720	1721
1720	1748
1720	2771
1721	1693
1721	1720
1721	1722
1721	1749
1722	1694
1722	1721
1722	1723
1722	1750
1723	1695
1723	1722
1723	1724
1723	1751
1724	1696
1724	1723
1724	1725
1724	1752
1725	1697
1725	1724
1725	1726
1725	1753
1726	1698
1726	1725
1726	1727
1726	1754
1727	1699
1727	1726
1727	1728
1727	1755
1728	1700
1728	1727
1728	1729
1728	1756
1729	1701
1729	1728
1729	1730
1729	1757
1730	1702
1730	1729
1730	1731
1730	1758
1731	1703
1731	1730
1731	1732
1731	1759
1732	1704
1732	1731
1732	1733
1732	1760
1733	1705
1733	1732
1733	1734
1733	1761
1734	1706
1734	1733
1734	1735
1734	1762
1735	1707
1735	1734
1735	1736
1735	1763
1736	1708
1736	1735
1736	1737
1736	1764
1737	1709
1737	1736
1737	1738
1737	1765
1738	1710
1738	1737
1738	1739
1738	1766
1739	1711
1739	1738
1739	1740
1739	1767
1740	1712
1740	1739
1740	1741
1740	1768
1741	1713
1741	1740
1741	1742
1741	1769
1742	1714
1742	1741
1742	1743
1742	1770
1743	1715
1743	1742
1743	1744
1743	1771
1744	1716
1744	1743
1744	1745
1744	1772
1745	1717
1745	1744
1745	1746
1745	1773
1746	1718
1746	1745
1746	1747
1746	1774
1747	1719
1747	1746
1747	1775
1748	1720
1748	1749
1748	1776
1748	2783
1749	1721
1749	1748
1749	1750
1749	1777
1750	1722
1750	1749
1750	1751
1750	1778
1751	1723
1751	1750
1751	1752
1751	1779
1752	1724
1752	1751
1752	1753
1752	1780
1753	1725
1753	1752
1753	1754
1753	1781
1754	1726
1754	1753
1754	1755
1754	1782
1755	1727
1755	1754
1755	1756
1755	1783
1756	1728
1756	1755
1756	1757
1756	1784
1757	1729
1757	1756
1757	1758
1757	1785
1758	1730
1758	1757
1758	1759
1758	1786
1759	1731
1759	1758
1759	1760
1759	1787
1760	1732
1760	1759
1760	1761
1760	1788
1761	1733
1761	1760
1761	1762
1761	1789
1762	1734
1762	1761
1762	1763
1762	1790
1763	1735
1763	1762
1763	1764
1763	1791
1764	1736
1764	1763
1764	1765
1764	1792
1765	1737
1765	1764
1765	1766
1765	1793
1766	1738
1766	1765
1766	1767
1766	1794
1767	1739
1767	1766
1767	1768
1767	1795
1768	1740
1768	1767
1768	1769
1768	1796
1769	1741
1769	1768
1769	1770
1769	1797
1770	1742
1770	1769
1770	1771
1770	1798
1771	1743
1771	1770
1771	1772
1771	1799
1772	1744
1772	1771
1772	1773
1772	1800
1773	1745
1773	1772
1773	1774
1773	1801
1774	1746
1774	1773
1774	1775
1774	1802
1775	1747
1775	1774
1775	1803
1776	1748
1776	1777
1776	1804
1776	2795
1777	1749
1777	1776
1777	1778
1777	1805
1778	1750
1778	1777
1778	1779
1778	1806
1779	1751
1779	1778
1779	1780
1779	1807
1780	1752
1780	1779
1780	1781
1780	1808
1781	1753
1781	1780
1781	1782
1781	1809
1782	1754
1782	1781
1782	1783
1782	1810
1783	1755
1783	1782
1783	1784
1783	1811
1784	1756
1784	1783
1784	1785
1784	1812
1785	1757
1785	1784
1785	1786
1785	1813
1786	1758
1786	1785
1786	1787
1786	1814
1787	1759
1787	1786
1787	1788
1787	1815
1788	1760
1788	1787
1788	1789
1788	1816
1789	1761
1789	1788
1789	1790
1789	1817
1790	1762
1790	1789
1790	1791
1790	1818
1791	1763
1791	1790
1791	1792
1791	1819
1792	1764
1792	1791
1792	1793
1792	1820
1793	1765
1793	1792
1793	1794
1793	1821
1794	1766
1794	1793
1794	1795
1794	1822
1795	1767
1795	1794
1795	1796
1795	1823
1796	1768
1796	1795
1796	1797
1796	1824
1797	1769
1797	1796
1797	1798
1797	1825
1798	1770
1798	1797
1798	1799
1798	1826
1799	1771
1799	1798
1799	1800
1799	1827
1800	1772
1800	1799
1800	1801
1800	1828
1801	1773
1801	1800
1801	1802
1801	1829
1802	1774
1802	1801
1802	1803
1802	1830
1803	1775
1803	1802
1803	1831
1804	1776
1804	1805
1804	1832
1804	2807
1805	1777
1805	1804
1805	1806
1805	1833
1806	1778
1806	1805
1806	1807
1806	1834
1807	1779
1807	1806
1807	1808
1807	1835
1808	1780
1808	1807
1808	1809
1808	1836
1809	1781
1809	1808
1809	1810
1809	1837
1810	1782
1810	1809
1810	1811
1810	1838
1811	1783
1811	1810
1811	1812
1811	1839
1812	1784
1812	1811
1812	1813
1812	1840
1813	1785
1813	1812
1813	1814
1813	1841
1814	1786
1814	1813
1814	1815
1814	1842
1815	1787
1815	1814
1815	1816
1815	1843
1816	1788
1816	1815
1816	1817
1816	1844
1817	1789
1817	1816
1817	1818
1817	1845
1818	1790
1818	1817
1818	1819
1818	1846
1819	1791
1819	1818
1819	1820
1819	1847
1820	1792
1820	1819
1820	1821
1820	1848
1821	1793
1821	1820
1821	1822
1821	1849
1822	1794
1822	1821
1822	1823
1822	1850
1823	1795
1823	1822
1823	1824
1823	1851
1824	1796
1824	1823
1824	1825
1824	1852
1825	1797
1825	1824
1825	1826
1825	1853
1826	1798
1826	1825
1826	1827
1826	1854
1827	1799
1827	1826
1827	1828
1827	1855
1828	1800
1828	1827
1828	1829
1828	1856
1829	1801
1829	1828
1829	1830
1829	1857
1830	1802
1830	1829
1830	1831
1830	1858
1831	1803
1831	1830
1831	1859
1832	1804
1832	1833
1832	1860
1832	2819
1833	1805
1833	1832
1833	1834
1833	1861
1834	1806
1834	1833
1834	1835
1834	1862
1835	1807
1835	1834
1835	1836
1835	1863
1836	1808
1836	1835
1836	1837
1836	1864
1837	1809
1837	1836
1837	1838
1837	1865
1838	1810
1838	1837
1838	1839
1838	1866
1839	1811
1839	1838
1839	1840
1839	1867
1840	1812
1840	1839
1840	1841
1840	1868
1841	1813
1841	1840
1841	1842
1841	1869
1842	1814
1842	1841
1842	1843
1842	1870
1843	1815
1843	1842
1843	1844
1843	1871
1844	1816
1844	1843
1844	1845
1844	1872
1845	1817
1845	1844
1845	1846
1845	1873
1846	1818
1846	1845
1846	1847
1846	1874
1847	1819
1847	1846
1847	1848
1847	1875
1848	1820
1848	1847
1848	1849
1848	1876
1849	1821
1849	1848
1849	1850
1849	1877
1850	1822
1850	1849
1850	1851
1850	1878
1851	1823
1851	1850
1851	1852
1851	1879
1852	1824
1852	1851
1852	1853
1852	1880
1853	1825
1853	1852
1853	1854
1853	1881
1854	1826
1854	1853
1854	1855
1854	1882
1855	1827
1855	1854
1855	1856
1855	1883
1856	1828
1856	1855
1856	1857
1856	1884
1857	1829
1857	1856
1857	1858
1857	1885
1858	1830
1858	1857
1858	1859
1858	1886
1859	1831
1859	1858
1859	1887
1860	1832
1860	1861
1860	1888
1860	2831
1861	1833
1861	1860
1861	1862
1861	1889
1862	1834
1862	1861
1862	1863
1862	1890
1863	1835
1863	1862
1863	1864
1863	1891
1864	1836
1864	1863
1864	1865
1864	1892
1865	1837
1865	1864
1865	1866
1865	1893
1866	1838
1866	1865
1866	1867
1866	1894
1867	1839
1867	1866
1867	1868
1867	1895
1868	1840
1868	1867
1868	1869
1868	1896
1869	1841
1869	1868
1869	1870
1869	1897
1870	1842
1870	1869
1870	1871
1870	1898
1871	1843
1871	1870
1871	1872
1871	1899
1872	1844
1872	1871
1872	1873
1872	1900
1873	1845
1873	1872
1873	1874
1873	1901
1874	1846
1874	1873
1874	1875
1874	1902
1875	1847
1875	1874
1875	1876
1875	1903
1876	1848
1876	1875
1876	1877
1876	1904
1877	1849
1877	1876
1877	1878
1877	1905
1878	1850
1878	1877
1878	1879
1878	1906
1879	1851
1879	1878
1879	1880
1879	1907
1880	1852
1880	1879
1880	1881
1880	1908
1881	1853
1881	1880
1881	1882
1881	1909
1882	1854
1882	1881
1882	1883
1882	1910
1883	1855
1883	1882
1883	1884
1883	1911
1884	1856
1884	1883
1884	1885
1884	1912
1885	1857
1885	1884
1885	1886
1885	1913
1886	1858
1886	1885
1886	1887
1886	1914
1887	1859
1887	1886
1887	1915
1888	1860
1888	1889
1888	1916
1888	2843
1889	1861
1889	1888
1889	1890
1889	1917
1890	1862
1890	1889
1890	1891
1890	1918
1891	1863
1891	1890
1891	1892
1891	1919
1892	1864
1892	1891
1892	1893
1892	1920
1893	1865
1893	1892
1893	1894
1893	1921
1894	1866
1894	1893
1894	1895
1894	1922
1895	1867
1895	1894
1895	1896
1895	1923
1896	1868
1896	1895
1896	1897
1896	1924
1897	1869
1897	1896
1897	1898
1897	1925
1898	1870
1898	1897
1898	1899
1898	1926
1899	1871
1899	1898
1899	1900
1899	1927
1900	1872
1900	1899
1900	1901
1900	1928
1901	1873
1901	1900
1901	1902
1901	1929
1902	1874
1902	1901
1902	1903
1902	1930
1903	1875
1903	1902
1903	1904
1903	1931
1904	1876
1904	1903
1904	1905
1904	1932
1905	1877
1905	1904
1905	1906
1905	1933
1906	1878
1906	1905
1906	1907
1906	1934
1907	1879
1907	1906
1907	1908
1907	1935
1908	1880
1908	1907
1908	1909
1908	1936
1909	1881
1909	1908
1909	1910
1909	1937
1910	1882
1910	1909
1910	1911
1910	1938
1911	1883
1911	1910
1911	1912
1911	1939
1912	1884
1912	1911
1912	1913
1912	1940
1913	1885
1913	1912
1913	1914
1913	1941
1914	1886
1914	1913
1914	1915
1914	1942
1915	1887
1915	1914
1915	1943
1916	1888
1916	1917
1916	1944
1916	2855
1917	1889
1917	1916
1917	1918
1917	1945
1918	1890
1918	1917
1918	1919
1918	1946
1919	1891
1919	1918
1919	1920
1919	1947
1920	1892
1920	1919
1920	1921
1920	1948
1921	1893
1921	1920
1921	1922
1921	1949
1922	1894
1922	1921
1922	1923
1922	1950
1923	1895
1923	1922
1923	1924
1923	1951
1924	1896
1924	1923
1924	1925
1924	1952
1925	1897
1925	1924
1925	1926
1925	1953
1926	1898
1926	1925
1926	1927
1926	1954
1927	1899
1927	1926
1927	1928
1927	1955
1928	1900
1928	1927
1928	1929
1928	1956
1929	1901
1929	1928
1929	1930
1929	1957
1930	1902
1930	1929
1930	1931
1930	1958
1931	1903
1931	1930
1931	1932
1931	1959
1932	1904
1932	1931
1932	1933
1932	1960
1933	1905
1933	1932
1933	1934
1933	1961
1934	1906
1934	1933
1934	1935
1934	1962
1935	1907
1935	1934
1935	1936
1935	1963
1936	1908
1936	1935
1936	1937
1936	1964
1937	1909
1937	1936
1937	1938
1937	1965
1938	1910
1938	1937
1938	1939
1938	1966
1939	1911
1939	1938
1939	1940
1939	1967
1940	1912
1940	1939
1940	1941
1940	1968
1941	1913
1941	1940
1941	1942
1941	1969
1942	1914
1942	1941
1942	1943
1942	1970
1943	1915
1943	1942
1943	1971
1944	1916
1944	1945
1944	1972
1944	2867
1945	1917
1945	1944
1945	1946
1945	1973
1946	1918
1946	1945
1946	1947
1946	1974
1947	1919
1947	1946
1947	1948
1947	1975
1948	1920
1948	1947
1948	1949
1948	1976
1949	1921
1949	1948
1949	1950
1949	1977
1950	1922
1950	1949
1950	1951
1950	1978
1951	1923
1951	1950
1951	1952
1951	1979
1952	1924
1952	1951
1952	1953
1952	1980
1953	1925
1953	1952
1953	1954
1953	1981
1954	1926
1954	1953
1954	1955
1954	1982
1955	1927
1955	1954
1955	1956
1955	1983
1956	1928
1956	1955
1956	1957
1956	1984
1957	1929
1957	1956
1957	1958
1957	1985
1958	1930
1958	1957
1958	1959
1958	1986
1959	1931
1959	1958
1959	1960
1959	1987
1960	1932
1960	1959
1960	1961
1960	1988
1961	1933
1961	1960
1961	1962
1961	1989
1962	1934
1962	1961
1962	1963
1962	1990
1963	1935
1963	1962
1963	1964
1963	1991
1964	1936
1964	1963
1964	1965
1964	1992
1965	1937
1965	1964
1965	1966
1965	1993
1966	1938
1966	1965
1966	1967
1966	1994
1967	1939
1967	1966
1967	1968
1967	1995
1968	1940
1968	1967
1968	1969
1968	1996
1969	1941
1969	1968
1969	1970
1969	1997
1970	1942
1970	1969
1970	1971
1970	1998
1971	1943
1971	1970
1971	1999
1972	1944
1972	1973
1972	2000
1972	2879
1973	1945
1973	1972
1973	1974
1973	2001
1974	1946
1974	1973
1974	1975
1974	2002
1975	1947
1975	1974
1975	1976
1975	2003
1976	1948
1976	1975
1976	1977
1976	2004
1977	1949
1977	1976
1977	1978
1977	2005
1978	1950
1978	1977
1978	1979
1978	2006
1979	1951
1979	1978
1979	1980
1979	2007
1980	1952
1980	1979
1980	1981
1980	2008
1981	1953
1981	1980
1981	1982
1981	2009
1982	1954
1982	1981
1982	1983
1982	2010
1983	1955
1983	1982
1983	1984
1983	2011
1984	1956
1984	1983
1984	1985
1984	2012
1985	1957
1985	1984
1985	1986
1985	2013
1986	1958
1986	1985
1986	1987
1986	2014
1987	1959
1987	1986
1987	1988
1987	2015
1988	1960
1988	1987
1988	1989
1988	2016
1989	1961
1989	1988
1989	1990
1989	2017
1990	1962
1990	1989
1990	1991
1990	2018
1991	1963
1991	1990
1991	1992
1991	2019
1992	1964
1992	1991
1992	1993
1992	2020
1993	1965
1993	1992
1993	1994
1993	2021
1994	1966
1994	1993
1994	1995
1994	2022
1995	1967
1995	1994
1995	1996
1995	2023
1996	1968
1996	1995
1996	1997
1996	2024
1997	1969
1997	1996
1997	1998
1997	2025
1998	1970
1998	1997
1998	1999
1998	2026
1999	1971
1999	1998
1999	2027
2000	1972
2000	2001
2000	2028
2000	2891
2001	1973
2001	2000
2001	2002
2001	2029
2002	1974
2002	2001
2002	2003
2002	2030
2003	1975
2003	2002
2003	2004
2003	2031
2004	1976
2004	2003
2004	2005
2004	2032
2005	1977
2005	2004
2005	2006
2005	2033
2006	1978
2006	2005
2006	2007
2006	2034
2007	1979
2007	2006
2007	2008
2007	2035
2008	1980
2008	2007
2008	2009
2008	2036
2009	1981
2009	2008
2009	2010
2009	2037
2010	1982
2010	2009
2010	2011
2010	2038
2011	1983
2011	2010
2011	2012
2011	2039
2012	1984
2012	2011
2012	2013
2012	2040
2013	1985
2013	2012
2013	2014
2013	2041
2014	1986
2014	2013
2014	2015
2014	2042
2015	1987
2015	2014
2015	2016
2015	2043
2016	1988
2016	2015
2016	2017
2016	2044
2017	1989
2017	2016
2017	2018
2017	2045
2018	1990
2018	2017
2018	2019
2018	2046
2019	1991
2019	2018
2019	2020
2019	2047
2020	1992
2020	2019
2020	2021
2020	2048
2021	1993
2021	2020
2021	2022
2021	2049
2022	1994
2022	2021
2022	2023
2022	2050
2023	1995
2023	2022
2023	2024
2023	2051
2024	1996
2024	2023
2024	2025
2024	2052
2025	1997
2025	2024
2025	2026
2025	2053
2026	1998
2026	2025
2026	2027
2026	2054
2027	1999
2027	2026
2027	2055
2028	2000
2028	2029
2028	2056
2028	2903
2029	2001
2029	2028
2029	2030
2029	2057
2030	2002
2030	2029
2030	2031
2030	2058
2031	2003
2031	2030
2031	2032
2031	2059
2032	2004
2032	2031
2032	2033
2032	2060
2033	2005
2033	2032
2033	2034
2033	2061
2034	2006
2034	2033
2034	2035
2034	2062
2035	2007
2035	2034
2035	2036
2035	2063
2036	2008
2036	2035
2036	2037
2036	2064
2037	2009
2037	2036
2037	2038
2037	2065
2038	2010
2038	2037
2038	2039
2038	2066
2039	2011
2039	2038
2039	2040
2039	2067
2040	2012
2040	2039
2040	2041
2040	2068
2041	2013
2041	2040
2041	2042
2041	2069
2042	2014
2042	2041
2042	2043
2042	2070
2043	2015
2043	2042
2043	2044
2043	2071
2044	2016
2044	2043
2044	2045
2044	2072
2045	2017
2045	2044
2045	2046
2045	2073
2046	2018
2046	2045
2046	2047
2046	2074
2047	2019
2047	2046
2047	2048
2047	2075
2048	2020
2048	2047
2048	2049
2048	2076
2049	2021
2049	2048
2049	2050
2049	2077
2050	2022
2050	2049
2050	2051
2050	2078
2051	2023
2051	2050
2051	2052
2051	2079
2052	2024
2052	2051
2052	2053
2052	2080
2053	2025
2053	2052
2053	2054
2053	2081
2054	2026
2054	2053
2054	2055
2054	2082
2055	2027
2055	2054
2055	2083
2056	2028
2056	2057
2056	2084
2056	2915
2057	2029
2057	2056
2057	2058
2057	2085
2058	2030
2058	2057
2058	2059
2058	2086
2059	2031
2059	2058
2059	2060
2059	2087
2060	2032
2060	2059
2060	2061
2060	2088
2061	2033
2061	2060
2061	2062
2061	2089
2062	2034
2062	2061
2062	2063
2062	2090
2063	2035
2063	2062
2063	2064
2063	2091
2064	2036
2064	2063
2064	2065
2064	2092
2065	2037
2065	2064
2065	2066
2065	2093
2066	2038
2066	2065
2066	2067
2066	2094
2067	2039
2067	2066
2067	2068
2067	2095
2068	2040
2068	2067
2068	2069
2068	2096
2069	2041
2069	2068
2069	2070
2069	2097
2070	2042
2070	2069
2070	2071
2070	2098
2071	2043
2071	2070
2071	2072
2071	2099
2072	2044
2072	2071
2072	2073
2072	2100
2073	2045
2073	2072
2073	2074
2073	2101
2074	2046
2074	2073
2074	2075
2074	2102
2075	2047
2075	2074
2075	2076
2075	2103
2076	2048
2076	2075
2076	2077
2076	2104
2077	2049
2077	2076
2077	2078
2077	2105
2078	2050
2078	2077
2078	2079
2078	2106
2079	2051
2079	2078
2079	2080
2079	2107
2080	2052
2080	2079
2080	2081
2080	2108
2081	2053
2081	2080
2081	2082
2081	2109
2082	2054
2082	2081
2082	2083
2082	2110
2083	2055
2083	2082
2083	2111
2084	2056
2084	2085
2084	2112
2084	2927
2085	2057
2085	2084
2085	2086
2085	2113
2086	2058
2086	2085
2086	2087
2086	2114
2087	2059
2087	2086
2087	2088
2087	2115
2088	2060
2088	2087
2088	2089
2088	2116
2089	2061
2089	2088
2089	2090
2089	2117
2090	2062
2090	2089
2090	2091
2090	2118
2091	2063
2091	2090
2091	2092
2091	2119
2092	2064
2092	2091
2092	2093
2092	2120
2093	2065
2093	2092
2093	2094
2093	2121
2094	2066
2094	2093
2094	2095
2094	2122
2095	2067
2095	2094
2095	2096
2095	2123
2096	2068
2096	2095
2096	2097
2096	2124
2097	2069
2097	2096
2097	2098
2097	2125
2098	2070
2098	2097
2098	2099
2098	2126
2099	2071
2099	2098
2099	2100
2099	2127
2100	2072
2100	2099
2100	2101
2100	2128
2101	2073
2101	2100
2101	2102
2101	2129
2102	2074
2102	2101
2102	2103
2102	2130
2103	2075
2103	2102
2103	2104
2103	2131
2104	2076
2104	2103
2104	2105
2104	2132
2105	2077
2105	2104
2105	2106
2105	2133
2106	2078
2106	2105
2106	2107
2106	2134
2107	2079
2107	2106
2107	2108
2107	2135
2108	2080
2108	2107
2108	2109
2108	2136
2109	2081
2109	2108
2109	2110
2109	2137
2110	2082
2110	2109
2110	2111
2110	2138
2111	2083
2111	2110
2111	2139
2112	2084
2112	2113
2112	2140
2112	2939
2113	2085
2113	2112
2113	2114
2113	2141
2114	2086
2114	2113
2114	2115
2114	2142
2115	2087
2115	2114
2115	2116
2115	2143
2116	2088
2116	2115
2116	2117
2116	2144
2117	2089
2117	2116
2117	2118
2117	2145
2118	2090
2118	2117
2118	2119
2118	2146
2119	2091
2119	2118
2119	2120
2119	2147
2120	2092
2120	2119
2120	2121
2120	2148
2121	2093
2121	2120
2121	2122
2121	2149
2122	2094
2122	2121
2122	2123
2122	2150
2123	2095
2123	2122
2123	2124
2123	2151
2124	2096
2124	2123
2124	2125
2124	2152
2125	2097
2125	2124
2125	2126
2125	2153
2126	2098
2126	2125
2126	2127
2126	2154
2127	2099
2127	2126
2127	2128
2127	2155
2128	2100
2128	2127
2128	2129
2128	2156
2129	2101
2129	2128
2129	2130
2129	2157
2130	2102
2130	2129
2130	2131
2130	2158
2131	2103
2131	2130
2131	2132
2131	2159
2132	2104
2132	2131
2132	2133
2132	2160
2133	2105
2133	2132
2133	2134
2133	2161
2134	2106
2134	2133
2134	2135
2134	2162
2135	2107
2135	2134
2135	2136
2135	2163
2136	2108
2136	2135
2136	2137
2136	2164
2137	2109
2137	2136
2137	2138
2137	2165
2138	2110
2138	2137
2138	2139
2138	2166
2139	2111
2139	2138
2139	2167
2140	2112
2140	2141
2140	2168
2140	2951
2141	2113
2141	2140
2141	2142
2141	2169
2142	2114
2142	2141
2142	2143
2142	2170
2143	2115
2143	2142
2143	2144
2143	2171
2144	2116
2144	2143
2144	2145
2144	2172
2145	2117
2145	2144
2145	2146
2145	2173
2146	2118
2146	2145
2146	2147
2146	2174
2147	2119
2147	2146
2147	2148
2147	2175
2148	2120
2148	2147
2148	2149
2148	2176
2149	2121
2149	2148
2149	2150
2149	2177
2150	2122
2150	2149
2150	2151
2150	2178
2151	2123
2151	2150
2151	2152
2151	2179
2152	2124
2152	2151
2152	2153
2152	2180
2153	2125
2153	2152
2153	2154
2153	2181
2154	2126
2154	2153
2154	2155
2154	2182
2155	2127
2155	2154
2155	2156
2155	2183
2156	2128
2156	2155
2156	2157
2156	2184
2157	2129
2157	2156
2157	2158
2157	2185
2158	2130
2158	2157
2158	2159
2158	2186
2159	2131
2159	2158
2159	2160
2159	2187
2160	2132
2160	2159
2160	2161
2160	2188
2161	2133
2161	2160
2161	2162
2161	2189
2162	2134
2162	2161
2162	2163
2162	2190
2163	2135
2163	2162
2163	2164
2163	2191
2164	2136
2164	2163
2164	2165
2164	2192
2165	2137
2165	2164
2165	2166
2165	2193
2166	2138
2166	2165
2166	2167
2166	2194
2167	2139
2167	2166
2167	2195
2168	2140
2168	2169
2168	2196
2168	2963
2169	2141
2169	2168
2169	2170
2169	2197
2170	2142
2170	2169
2170	2171
2170	2198
2171	2143
2171	2170
2171	2172
2171	2199
2172	2144
2172	2171
2172	2173
2172	2200
2173	2145
2173	2172
2173	2174
2173	2201
2174	2146
2174	2173
2174	2175
2174	2202
2175	2147
2175	2174
2175	2176
2175	2203
2176	2148
2176	2175
2176	2177
2176	2204
2177	2149
2177	2176
2177	2178
2177	2205
2178	2150
2178	2177
2178	2179
2178	2206
2179	2151
2179	2178
2179	2180
2179	2207
2180	2152
2180	2179
2180	2181
2180	2208
2181	2153
2181	2180
2181	2182
2181	2209
2182	2154
2182	2181
2182	2183
2182	2210
2183	2155
2183	2182
2183	2184
2183	2211
2184	2156
2184	2183
2184	2185
2184	2212
2185	2157
2185	2184
2185	2186
2185	2213
2186	2158
2186	2185
2186	2187
2186	2214
2187	2159
2187	2186
2187	2188
2187	2215
2188	2160
2188	2187
2188	2189
2188	2216
2189	2161
2189	2188
2189	2190
2189	2217
2190	2162
2190	2189
2190	2191
2190	2218
2191	2163
2191	2190
2191	2192
2191	2219
2192	2164
2192	2191
2192	2193
2192	2220
2193	2165
2193	2192
2193	2194
2193	2221
2194	2166
2194	2193
2194	2195
2194	2222
2195	2167
2195	2194
2195	2223
2196	2168
2196	2197
2196	2224
2196	2975
2197	2169
2197	2196
2197	2198
2197	2225
2198	2170
2198	2197
2198	2199
2198	2226
2199	2171
2199	2198
2199	2200
2199	2227
2200	2172
2200	2199
2200	2201
2200	2228
2201	2173
2201	2200
2201	2202
2201	2229
2202	2174
2202	2201
2202	2203
2202	2230
2203	2175
2203	2202
2203	2204
2203	2231
2204	2176
2204	2203
2204	2205
2204	2232
2205	2177
2205	2204
2205	2206
2205	2233
2206	2178
2206	2205
2206	2207
2206	2234
2207	2179
2207	2206
2207	2208
2207	2235
2208	2180
2208	2207
2208	2209
2208	2236
2209	2181
2209	2208
2209	2210
2209	2237
2210	2182
2210	2209
2210	2211
2210	2238
2211	2183
2211	2210
2211	2212
2211	2239
2212	2184
2212	2211
2212	2213
2212	2240
2213	2185
2213	2212
2213	2214
2213	2241
2214	2186
2214	2213
2214	2215
2214	2242
2215	2187
2215	2214
2215	2216
2215	2243
2216	2188
2216	2215
2216	2217
2216	2244
2217	2189
2217	2216
2217	2218
2217	2245
2218	2190
2218	2217
[...]
5517	5516
5517	5518
5517	5537
5518	5498
5518	5517
5518	5519
5518	5538
5519	5499
5519	5518
5519	5520
5519	5539
5520	5500
5520	5519
5520	5521
5520	5540
5521	5501
5521	5520
5521	5522
5521	5541
5522	5502
5522	5521
5522	5523
5522	5542
5523	5503
5523	5522
5523	5524
5523	5543
5524	5504
5524	5523
5524	5525
5524	5544
5525	5505
5525	5524
5525	5526
5525	5545
5526	5506
5526	5525
5526	5527
5526	5546
5527	5507
5527	5526
5527	5528
5527	5547
5528	5508
5528	5527
5528	5529
5528	5548
5529	5509
5529	5528
5529	5530
5529	5549
5530	5510
5530	5529
5530	5531
5530	5550
5531	5511
5531	5530
5531	5532
5531	5551
5532	5512
5532	5531
5532	5533
5532	5552
5533	5513
5533	5532
5533	5534
5533	5553
5534	5514
5534	5533
5534	5535
5534	5554
5535	5515
5535	5534
5535	5555
5536	5516
5536	5537
5536	5556
5536	5803
5537	5517
5537	5536
5537	5538
5537	5557
5538	5518
5538	5537
5538	5539
5538	5558
5539	5519
5539	5538
5539	5540
5539	5559
5540	5520
5540	5539
5540	5541
5540	5560
5541	5521
5541	5540
5541	5542
5541	5561
5542	5522
5542	5541
5542	5543
5542	5562
5543	5523
5543	5542
5543	5544
5543	5563
5544	5524
5544	5543
5544	5545
5544	5564
5545	5525
5545	5544
5545	5546
5545	5565
5546	5526
5546	5545
5546	5547
5546	5566
5547	5527
5547	5546
5547	5548
5547	5567
5548	5528
5548	5547
5548	5549
5548	5568
5549	5529
5549	5548
5549	5550
5549	5569
5550	5530
5550	5549
5550	5551
5550	5570
5551	5531
5551	5550
5551	5552
5551	5571
5552	5532
5552	5551
5552	5553
5552	5572
5553	5533
5553	5552
5553	5554
5553	5573
5554	5534
5554	5553
5554	5555
5554	5574
5555	5535
5555	5554
5555	5575
5556	5536
5556	5557
5556	5576
5556	5831
5557	5537
5557	5556
5557	5558
5557	5577
5558	5538
5558	5557
5558	5559
5558	5578
5559	5539
5559	5558
5559	5560
5559	5579
5560	5540
5560	5559
5560	5561
5560	5580
5561	5541
5561	5560
5561	5562
5561	5581
5562	5542
5562	5561
5562	5563
5562	5582
5563	5543
5563	5562
5563	5564
5563	5583
5564	5544
5564	5563
5564	5565
5564	5584
5565	5545
5565	5564
5565	5566
5565	5585
5566	5546
5566	5565
5566	5567
5566	5586
5567	5547
5567	5566
5567	5568
5567	5587
5568	5548
5568	5567
5568	5569
5568	5588
5569	5549
5569	5568
5569	5570
5569	5589
5570	5550
5570	5569
5570	5571
5570	5590
5571	5551
5571	5570
5571	5572
5571	5591
5572	5552
5572	5571
5572	5573
5572	5592
5573	5553
5573	5572
5573	5574
5573	5593
5574	5554
5574	5573
5574	5575
5574	5594
5575	5555
5575	5574
5575	5595
5576	5556
5576	5577
5576	5596
5576	5859
5577	5557
5577	5576
5577	5578
5577	5597
5578	5558
5578	5577
5578	5579
5578	5598
5579	5559
5579	5578
5579	5580
5579	5599
5580	5560
5580	5579
5580	5581
5580	5600
5581	5561
5581	5580
5581	5582
5581	5601
5582	5562
5582	5581
5582	5583
5582	5602
5583	5563
5583	5582
5583	5584
5583	5603
5584	5564
5584	5583
5584	5585
5584	5604
5585	5565
5585	5584
5585	5586
5585	5605
5586	5566
5586	5585
5586	5587
5586	5606
5587	5567
5587	5586
5587	5588
5587	5607
5588	5568
5588	5587
5588	5589
5588	5608
5589	5569
5589	5588
5589	5590
5589	5609
5590	5570
5590	5589
5590	5591
5590	5610
5591	5571
5591	5590
5591	5592
5591	5611
5592	5572
5592	5591
5592	5593
5592	5612
5593	5573
5593	5592
5593	5594
5593	5613
5594	5574
5594	5593
5594	5595
5594	5614
5595	5575
5595	5594
5595	5615
5596	5576
5596	5597
5596	5616
5596	5887
5597	5577
5597	5596
5597	5598
5597	5617
5598	5578
5598	5597
5598	5599
5598	5618
5599	5579
5599	5598
5599	5600
5599	5619
5600	5580
5600	5599
5600	5601
5600	5620
5601	5581
5601	5600
5601	5602
5601	5621
5602	5582
5602	5601
5602	5603
5602	5622
5603	5583
5603	5602
5603	5604
5603	5623
5604	5584
5604	5603
5604	5605
5604	5624
5605	5585
5605	5604
5605	5606
5605	5625
5606	5586
5606	5605
5606	5607
5606	5626
5607	5587
5607	5606
5607	5608
5607	5627
5608	5588
5608	5607
5608	5609
5608	5628
5609	5589
5609	5608
5609	5610
5609	5629
5610	5590
5610	5609
5610	5611
5610	5630
5611	5591
5611	5610
5611	5612
5611	5631
5612	5592
5612	5611
5612	5613
5612	5632
5613	5593
5613	5612
5613	5614
5613	5633
5614	5594
5614	5613
5614	5615
5614	5634
5615	5595
5615	5614
5615	5635
5616	5596
5616	5617
5616	5915
5617	5597
5617	5616
5617	5618
5618	5598
5618	5617
5618	5619
5619	5599
5619	5618
5619	5620
5620	5600
5620	5619
5620	5621
5621	5601
5621	5620
5621	5622
5622	5602
5622	5621
5622	5623
5623	5603
5623	5622
5623	5624
5624	5604
5624	5623
5624	5625
5625	5605
5625	5624
5625	5626
5626	5606
5626	5625
5626	5627
5627	5607
5627	5626
5627	5628
5628	5608
5628	5627
5628	5629
5629	5609
5629	5628
5629	5630
5630	5610
5630	5629
5630	5631
5631	5611
5631	5630
5631	5632
5632	5612
5632	5631
5632	5633
5633	5613
5633	5632
5633	5634
5634	5614
5634	5633
5634	5635
5635	5615
5635	5634
5636	4688
5636	5637
5636	5664
5636	5927
5637	4689
5637	5636
5637	5638
5637	5665
5638	4690
5638	5637
5638	5639
5638	5666
5639	4691
5639	5638
5639	5640
5639	5667
5640	4692
5640	5639
5640	5641
5640	5668
5641	4693
5641	5640
5641	5642
5641	5669
5642	4694
5642	5641
5642	5643
5642	5670
5643	4695
5643	5642
5643	5644
5643	5671
5644	4696
5644	5643
5644	5645
5644	5672
5645	4697
5645	5644
5645	5646
5645	5673
5646	4698
5646	5645
5646	5647
5646	5674
5647	4699
5647	5646
5647	5648
5647	5675
5648	4700
5648	5647
5648	5649
5648	5676
5649	4701
5649	5648
5649	5650
5649	5677
5650	4702
5650	5649
5650	5651
5650	5678
5651	4703
5651	5650
5651	5652
5651	5679
5652	4704
5652	5651
5652	5653
5652	5680
5653	4705
5653	5652
5653	5654
5653	5681
5654	4706
5654	5653
5654	5655
5654	5682
5655	4707
5655	5654
5655	5656
5655	5683
5656	4708
5656	5655
5656	5657
5656	5684
5657	4709
5657	5656
5657	5658
5657	5685
5658	4710
5658	5657
5658	5659
5658	5686
5659	4711
5659	5658
5659	5660
5659	5687
5660	4712
5660	5659
5660	5661
5660	5688
5661	4713
5661	5660
5661	5662
5661	5689
5662	4714
5662	5661
5662	5663
5662	5690
5663	4715
5663	5436
5663	5662
5663	5691
5664	5636
5664	5665
5664	5692
5664	5939
5665	5637
5665	5664
5665	5666
5665	5693
5666	5638
5666	5665
5666	5667
5666	5694
5667	5639
5667	5666
5667	5668
5667	5695
5668	5640
5668	5667
5668	5669
5668	5696
5669	5641
5669	5668
5669	5670
5669	5697
5670	5642
5670	5669
5670	5671
5670	5698
5671	5643
5671	5670
5671	5672
5671	5699
5672	5644
5672	5671
5672	5673
5672	5700
5673	5645
5673	5672
5673	5674
5673	5701
5674	5646
5674	5673
5674	5675
5674	5702
5675	5647
5675	5674
5675	5676
5675	5703
5676	5648
5676	5675
5676	5677
5676	5704
5677	5649
5677	5676
5677	5678
5677	5705
5678	5650
5678	5677
5678	5679
5678	5706
5679	5651
5679	5678
5679	5680
5679	5707
5680	5652
5680	5679
5680	5681
5680	5708
5681	5653
5681	5680
5681	5682
5681	5709
5682	5654
5682	5681
5682	5683
5682	5710
5683	5655
5683	5682
5683	5684
5683	5711
5684	5656
5684	5683
5684	5685
5684	5712
5685	5657
5685	5684
5685	5686
5685	5713
5686	5658
5686	5685
5686	5687
5686	5714
5687	5659
5687	5686
5687	5688
5687	5715
5688	5660
5688	5687
5688	5689
5688	5716
5689	5661
5689	5688
5689	5690
5689	5717
5690	5662
5690	5689
5690	5691
5690	5718
5691	5456
5691	5663
5691	5690
5691	5719
5692	5664
5692	5693
5692	5720
5692	5951
5693	5665
5693	5692
5693	5694
5693	5721
5694	5666
5694	5693
5694	5695
5694	5722
5695	5667
5695	5694
5695	5696
5695	5723
5696	5668
5696	5695
5696	5697
5696	5724
5697	5669
5697	5696
5697	5698
5697	5725
5698	5670
5698	5697
5698	5699
5698	5726
5699	5671
5699	5698
5699	5700
5699	5727
5700	5672
5700	5699
5700	5701
5700	5728
5701	5673
5701	5700
5701	5702
5701	5729
5702	5674
5702	5701
5702	5703
5702	5730
5703	5675
5703	5702
5703	5704
5703	5731
5704	5676
5704	5703
5704	5705
5704	5732
5705	5677
5705	5704
5705	5706
5705	5733
5706	5678
5706	5705
5706	5707
5706	5734
5707	5679
5707	5706
5707	5708
5707	5735
5708	5680
5708	5707
5708	5709
5708	5736
5709	5681
5709	5708
5709	5710
5709	5737
5710	5682
5710	5709
5710	5711
5710	5738
5711	5683
5711	5710
5711	5712
5711	5739
5712	5684
5712	5711
5712	5713
5712	5740
5713	5685
5713	5712
5713	5714
5713	5741
5714	5686
5714	5713
5714	5715
5714	5742
5715	5687
5715	5714
5715	5716
5715	5743
5716	5688
5716	5715
5716	5717
5716	5744
5717	5689
5717	5716
5717	5718
5717	5745
5718	5690
5718	5717
5718	5719
5718	5746
5719	5476
5719	5691
5719	5718
5719	5747
5720	5692
5720	5721
5720	5748
5720	5963
5721	5693
5721	5720
5721	5722
5721	5749
5722	5694
5722	5721
5722	5723
5722	5750
5723	5695
5723	5722
5723	5724
5723	5751
5724	5696
5724	5723
5724	5725
5724	5752
5725	5697
5725	5724
5725	5726
5725	5753
5726	5698
5726	5725
5726	5727
5726	5754
5727	5699
5727	5726
5727	5728
5727	5755
5728	5700
5728	5727
5728	5729
5728	5756
5729	5701
5729	5728
5729	5730
5729	5757
5730	5702
5730	5729
5730	5731
5730	5758
5731	5703
5731	5730
5731	5732
5731	5759
5732	5704
5732	5731
5732	5733
5732	5760
5733	5705
5733	5732
5733	5734
5733	5761
5734	5706
5734	5733
5734	5735
5734	5762
5735	5707
5735	5734
5735	5736
5735	5763
5736	5708
5736	5735
5736	5737
5736	5764
5737	5709
5737	5736
5737	5738
5737	5765
5738	5710
5738	5737
5738	5739
5738	5766
5739	5711
5739	5738
5739	5740
5739	5767
5740	5712
5740	5739
5740	5741
5740	5768
5741	5713
5741	5740
5741	5742
5741	5769
5742	5714
5742	5741
5742	5743
5742	5770
5743	5715
5743	5742
5743	5744
5743	5771
5744	5716
5744	5743
5744	5745
5744	5772
5745	5717
5745	5744
5745	5746
5745	5773
5746	5718
5746	5745
5746	5747
5746	5774
5747	5496
5747	5719
5747	5746
5747	5775
5748	5720
5748	5749
5748	5776
5748	5975
5749	5721
5749	5748
5749	5750
5749	5777
5750	5722
5750	5749
5750	5751
5750	5778
5751	5723
5751	5750
5751	5752
5751	5779
5752	5724
5752	5751
5752	5753
5752	5780
5753	5725
5753	5752
5753	5754
5753	5781
5754	5726
5754	5753
5754	5755
5754	5782
5755	5727
5755	5754
5755	5756
5755	5783
5756	5728
5756	5755
5756	5757
5756	5784
5757	5729
5757	5756
5757	5758
5757	5785
5758	5730
5758	5757
5758	5759
5758	5786
5759	5731
5759	5758
5759	5760
5759	5787
5760	5732
5760	5759
5760	5761
5760	5788
5761	5733
5761	5760
5761	5762
5761	5789
5762	5734
5762	5761
5762	5763
5762	5790
5763	5735
5763	5762
5763	5764
5763	5791
5764	5736
5764	5763
5764	5765
5764	5792
5765	5737
5765	5764
5765	5766
5765	5793
5766	5738
5766	5765
5766	5767
5766	5794
5767	5739
5767	5766
5767	5768
5767	5795
5768	5740
5768	5767
5768	5769
5768	5796
5769	5741
5769	5768
5769	5770
5769	5797
5770	5742
5770	5769
5770	5771
5770	5798
5771	5743
5771	5770
5771	5772
5771	5799
5772	5744
5772	5771
5772	5773
5772	5800
5773	5745
5773	5772
5773	5774
5773	5801
5774	5746
5774	5773
5774	5775
5774	5802
5775	5516
5775	5747
5775	5774
5775	5803
5776	5748
5776	5777
5776	5804
5776	5987
5777	5749
5777	5776
5777	5778
5777	5805
5778	5750
5778	5777
5778	5779
5778	5806
5779	5751
5779	5778
5779	5780
5779	5807
5780	5752
5780	5779
5780	5781
5780	5808
5781	5753
5781	5780
5781	5782
5781	5809
5782	5754
5782	5781
5782	5783
5782	5810
5783	5755
5783	5782
5783	5784
5783	5811
5784	5756
5784	5783
5784	5785
5784	5812
5785	5757
5785	5784
5785	5786
5785	5813
5786	5758
5786	5785
5786	5787
5786	5814
5787	5759
5787	5786
5787	5788
5787	5815
5788	5760
5788	5787
5788	5789
5788	5816
5789	5761
5789	5788
5789	5790
5789	5817
5790	5762
5790	5789
5790	5791
5790	5818
5791	5763
5791	5790
5791	5792
5791	5819
5792	5764
5792	5791
5792	5793
5792	5820
5793	5765
5793	5792
5793	5794
5793	5821
5794	5766
5794	5793
5794	5795
5794	5822
5795	5767
5795	5794
5795	5796
5795	5823
5796	5768
5796	5795
5796	5797
5796	5824
5797	5769
5797	5796
5797	5798
5797	5825
5798	5770
5798	5797
5798	5799
5798	5826
5799	5771
5799	5798
5799	5800
5799	5827
5800	5772
5800	5799
5800	5801
5800	5828
5801	5773
5801	5800
5801	5802
5801	5829
5802	5774
5802	5801
5802	5803
5802	5830
5803	5536
5803	5775
5803	5802
5803	5831
5804	5776
5804	5805
5804	5832
5804	5999
5805	5777
5805	5804
5805	5806
5805	5833
5806	5778
5806	5805
5806	5807
5806	5834
5807	5779
5807	5806
5807	5808
5807	5835
5808	5780
5808	5807
5808	5809
5808	5836
5809	5781
5809	5808
5809	5810
5809	5837
5810	5782
5810	5809
5810	5811
5810	5838
5811	5783
5811	5810
5811	5812
5811	5839
5812	5784
5812	5811
5812	5813
5812	5840
5813	5785
5813	5812
5813	5814
5813	5841
5814	5786
5814	5813
5814	5815
5814	5842
5815	5787
5815	5814
5815	5816
5815	5843
5816	5788
5816	5815
5816	5817
5816	5844
5817	5789
5817	5816
5817	5818
5817	5845
5818	5790
5818	5817
5818	5819
5818	5846
5819	5791
5819	5818
5819	5820
5819	5847
5820	5792
5820	5819
5820	5821
5820	5848
5821	5793
5821	5820
5821	5822
5821	5849
5822	5794
5822	5821
5822	5823
5822	5850
5823	5795
5823	5822
5823	5824
5823	5851
5824	5796
5824	5823
5824	5825
5824	5852
5825	5797
5825	5824
5825	5826
5825	5853
5826	5798
5826	5825
5826	5827
5826	5854
5827	5799
5827	5826
5827	5828
5827	5855
5828	5800
5828	5827
5828	5829
5828	5856
5829	5801
5829	5828
5829	5830
5829	5857
5830	5802
5830	5829
5830	5831
5830	5858
5831	5556
5831	5803
5831	5830
5831	5859
5832	5804
5832	5833
5832	5860
5832	6011
5833	5805
5833	5832
5833	5834
5833	5861
5834	5806
5834	5833
5834	5835
5834	5862
5835	5807
5835	5834
5835	5836
5835	5863
5836	5808
5836	5835
5836	5837
5836	5864
5837	5809
5837	5836
5837	5838
5837	5865
5838	5810
5838	5837
5838	5839
5838	5866
5839	5811
5839	5838
5839	5840
5839	5867
5840	5812
5840	5839
5840	5841
5840	5868
5841	5813
5841	5840
5841	5842
5841	5869
5842	5814
5842	5841
5842	5843
5842	5870
5843	5815
5843	5842
5843	5844
5843	5871
5844	5816
5844	5843
5844	5845
5844	5872
5845	5817
5845	5844
5845	5846
5845	5873
5846	5818
5846	5845
5846	5847
5846	5874
5847	5819
5847	5846
5847	5848
5847	5875
5848	5820
5848	5847
5848	5849
5848	5876
5849	5821
5849	5848
5849	5850
5849	5877
5850	5822
5850	5849
5850	5851
5850	5878
5851	5823
5851	5850
5851	5852
5851	5879
5852	5824
5852	5851
5852	5853
5852	5880
5853	5825
5853	5852
5853	5854
5853	5881
5854	5826
5854	5853
5854	5855
5854	5882
5855	5827
5855	5854
5855	5856
5855	5883
5856	5828
5856	5855
5856	5857
5856	5884
5857	5829
5857	5856
5857	5858
5857	5885
5858	5830
5858	5857
5858	5859
5858	5886
5859	5576
5859	5831
5859	5858
5859	5887
5860	5832
5860	5861
5860	5888
5860	6023
5861	5833
5861	5860
5861	5862
5861	5889
5862	5834
5862	5861
5862	5863
5862	5890
5863	5835
5863	5862
5863	5864
5863	5891
5864	5836
5864	5863
5864	5865
5864	5892
5865	5837
5865	5864
5865	5866
5865	5893
5866	5838
5866	5865
5866	5867
5866	5894
5867	5839
5867	5866
5867	5868
5867	5895
5868	5840
5868	5867
5868	5869
5868	5896
5869	5841
5869	5868
5869	5870
5869	5897
5870	5842
5870	5869
5870	5871
5870	5898
5871	5843
5871	5870
5871	5872
5871	5899
5872	5844
5872	5871
5872	5873
5872	5900
5873	5845
5873	5872
5873	5874
5873	5901
5874	5846
5874	5873
5874	5875
5874	5902
5875	5847
5875	5874
5875	5876
5875	5903
5876	5848
5876	5875
5876	5877
5876	5904
5877	5849
5877	5876
5877	5878
5877	5905
5878	5850
5878	5877
5878	5879
5878	5906
5879	5851
5879	5878
5879	5880
5879	5907
5880	5852
5880	5879
5880	5881
5880	5908
5881	5853
5881	5880
5881	5882
5881	5909
5882	5854
5882	5881
5882	5883
5882	5910
5883	5855
5883	5882
5883	5884
5883	5911
5884	5856
5884	5883
5884	5885
5884	5912
5885	5857
5885	5884
5885	5886
5885	5913
5886	5858
5886	5885
5886	5887
5886	5914
5887	5596
5887	5859
5887	5886
5887	5915
5888	5860
5888	5889
5888	6035
5889	5861
5889	5888
5889	5890
5890	5862
5890	5889
5890	5891
5891	5863
5891	5890
5891	5892
5892	5864
5892	5891
5892	5893
5893	5865
5893	5892
5893	5894
5894	5866
5894	5893
5894	5895
5895	5867
5895	5894
5895	5896
5896	5868
5896	5895
5896	5897
5897	5869
5897	5896
5897	5898
5898	5870
5898	5897
5898	5899
5899	5871
5899	5898
5899	5900
5900	5872
5900	5899
5900	5901
5901	5873
5901	5900
5901	5902
5902	5874
5902	5901
5902	5903
5903	5875
5903	5902
5903	5904
5904	5876
5904	5903
5904	5905
5905	5877
5905	5904
5905	5906
5906	5878
5906	5905
5906	5907
5907	5879
5907	5906
5907	5908
5908	5880
5908	5907
5908	5909
5909	5881
5909	5908
5909	5910
5910	5882
5910	5909
5910	5911
5911	5883
5911	5910
5911	5912
5912	5884
5912	5911
5912	5913
5913	5885
5913	5912
5913	5914
5914	5886
5914	5913
5914	5915
5915	5616
5915	5887
5915	5914
5916	5424
5916	5917
5916	5928
5917	5425
5917	5916
5917	5918
5917	5929
5918	5426
5918	5917
5918	5919
5918	5930
5919	5427
5919	5918
5919	5920
5919	5931
5920	5428
5920	5919
5920	5921
5920	5932
5921	5429
5921	5920
5921	5922
5921	5933
5922	5430
5922	5921
5922	5923
5922	5934
5923	5431
5923	5922
5923	5924
5923	5935
5924	5432
5924	5923
5924	5925
5924	5936
5925	5433
5925	5924
5925	5926
5925	5937
5926	5434
5926	5925
5926	5927
5926	5938
5927	5435
5927	5636
5927	5926
5927	5939
5928	5916
5928	5929
5928	5940
5929	5917
5929	5928
5929	5930
5929	5941
5930	5918
5930	5929
5930	5931
5930	5942
5931	5919
5931	5930
5931	5932
5931	5943
5932	5920
5932	5931
5932	5933
5932	5944
5933	5921
5933	5932
5933	5934
5933	5945
5934	5922
5934	5933
5934	5935
5934	5946
5935	5923
5935	5934
5935	5936
5935	5947
5936	5924
5936	5935
5936	5937
5936	5948
5937	5925
5937	5936
5937	5938
5937	5949
5938	5926
5938	5937
5938	5939
5938	5950
5939	5664
5939	5927
5939	5938
5939	5951
5940	5928
5940	5941
5940	5952
5941	5929
5941	5940
5941	5942
5941	5953
5942	5930
5942	5941
5942	5943
5942	5954
5943	5931
5943	5942
5943	5944
5943	5955
5944	5932
5944	5943
5944	5945
5944	5956
5945	5933
5945	5944
5945	5946
5945	5957
5946	5934
5946	5945
5946	5947
5946	5958
5947	5935
5947	5946
5947	5948
5947	5959
5948	5936
5948	5947
5948	5949
5948	5960
5949	5937
5949	5948
5949	5950
5949	5961
5950	5938
5950	5949
5950	5951
5950	5962
5951	5692
5951	5939
5951	5950
5951	5963
5952	5940
5952	5953
5952	5964
5953	5941
5953	5952
5953	5954
5953	5965
5954	5942
5954	5953
5954	5955
5954	5966
5955	5943
5955	5954
5955	5956
5955	5967
5956	5944
5956	5955
5956	5957
5956	5968
5957	5945
5957	5956
5957	5958
5957	5969
5958	5946
5958	5957
5958	5959
5958	5970
5959	5947
5959	5958
5959	5960
5959	5971
5960	5948
5960	5959
5960	5961
5960	5972
5961	5949
5961	5960
5961	5962
5961	5973
5962	5950
5962	5961
5962	5963
5962	5974
5963	5720
5963	5951
5963	5962
5963	5975
5964	5952
5964	5965
5964	5976
5965	5953
5965	5964
5965	5966
5965	5977
5966	5954
5966	5965
5966	5967
5966	5978
5967	5955
5967	5966
5967	5968
5967	5979
5968	5956
5968	5967
5968	5969
5968	5980
5969	5957
5969	5968
5969	5970
5969	5981
5970	5958
5970	5969
5970	5971
5970	5982
5971	5959
5971	5970
5971	5972
5971	5983
5972	5960
5972	5971
5972	5973
5972	5984
5973	5961
5973	5972
5973	5974
5973	5985
5974	5962
5974	5973
5974	5975
5974	5986
5975	5748
5975	5963
5975	5974
5975	5987
5976	5964
5976	5977
5976	5988
5977	5965
5977	5976
5977	5978
5977	5989
5978	5966
5978	5977
5978	5979
5978	5990
5979	5967
5979	5978
5979	5980
5979	5991
5980	5968
5980	5979
5980	5981
5980	5992
5981	5969
5981	5980
5981	5982
5981	5993
5982	5970
5982	5981
5982	5983
5982	5994
5983	5971
5983	5982
5983	5984
5983	5995
5984	5972
5984	5983
5984	5985
5984	5996
5985	5973
5985	5984
5985	5986
5985	5997
5986	5974
5986	5985
5986	5987
5986	5998
5987	5776
5987	5975
5987	5986
5987	5999
5988	5976
5988	5989
5988	6000
5989	5977
5989	5988
5989	5990
5989	6001
5990	5978
5990	5989
5990	5991
5990	6002
5991	5979
5991	5990
5991	5992
5991	6003
5992	5980
5992	5991
5992	5993
5992	6004
5993	5981
5993	5992
5993	5994
5993	6005
5994	5982
5994	5993
5994	5995
5994	6006
5995	5983
5995	5994
5995	5996
5995	6007
5996	5984
5996	5995
5996	5997
5996	6008
5997	5985
5997	5996
5997	5998
5997	6009
5998	5986
5998	5997
5998	5999
5998	6010
5999	5804
5999	5987
5999	5998
5999	6011
6000	5988
6000	6001
6000	6012
6001	5989
6001	6000
6001	6002
6001	6013
6002	5990
6002	6001
6002	6003
6002	6014
6003	5991
6003	6002
6003	6004
6003	6015
6004	5992
6004	6003
6004	6005
6004	6016
6005	5993
6005	6004
6005	6006
6005	6017
6006	5994
6006	6005
6006	6007
6006	6018
6007	5995
6007	6006
6007	6008
6007	6019
6008	5996
6008	6007
6008	6009
6008	6020
6009	5997
6009	6008
6009	6010
6009	6021
6010	5998
6010	6009
6010	6011
6010	6022
6011	5832
6011	5999
6011	6010
6011	6023
6012	6000
6012	6013
6012	6024
6013	6001
6013	6012
6013	6014
6013	6025
6014	6002
6014	6013
6014	6015
6014	6026
6015	6003
6015	6014
6015	6016
6015	6027
6016	6004
6016	6015
6016	6017
6016	6028
6017	6005
6017	6016
6017	6018
6017	6029
6018	6006
6018	6017
6018	6019
6018	6030
6019	6007
6019	6018
6019	6020
6019	6031
6020	6008
6020	6019
6020	6021
6020	6032
6021	6009
6021	6020
6021	6022
6021	6033
6022	6010
6022	6021
6022	6023
6022	6034
6023	5860
6023	6011
6023	6022
6023	6035
6024	6012
6024	6025
6025	6013
6025	6024
6025	6026
6026	6014
6026	6025
6026	6027
6027	6015
6027	6026
6027	6028
6028	6016
6028	6027
6028	6029
6029	6017
6029	6028
6029	6030
6030	6018
6030	6029
6030	6031
6031	6019
6031	6030
6031	6032
6032	6020
6032	6031
6032	6033
6033	6021
6033	6032
6033	6034
6034	6022
6034	6033
6034	6035
6035	5888
6035	6023
6035	6034
