/*---------------------------------------------------------------------------*\
| =========                 |                                                 |
| \\      /  F ield         | OpenFOAM: The Open Source CFD Toolbox           |
|  \\    /   O peration     | Version:  v2012                                 |
|   \\  /    A nd           | Website:  www.openfoam.com                      |
|    \\/     M anipulation  |                                                 |
\*---------------------------------------------------------------------------*/
Build  : _7bdb509494-20201222 OPENFOAM=2012
Arch   : "LSB;label=32;scalar=64"
Exec   : simpleFoam
Date   : Feb 01 2023
Time   : 11:06:13
Host   : johnsPC
PID    : 2863
I/O    : uncollated
Case   : /home/john/of_cases/baffle/cases/0_7Re10_1
nProcs : 1
trapFpe: Floating point exception trapping enabled (FOAM_SIGFPE).
fileModificationChecking : Monitoring run-time modified files using timeStampMaster (fileModificationSkew 5, maxFileModificationPolls 20)
allowSystemOperations : Allowing user-supplied system call operations

// * * * * * * * * * * * * * * * * * * * * * * * * * * * * * * * * * * * * * //
Create time

Create mesh for time = 0


SIMPLE: convergence criteria
    field p	 tolerance 1e-06
    field U	 tolerance 1e-06
    field "(k|epsilon|omega|f|v2|age)"	 tolerance 1e-05

Reading field p

Reading field U

Reading/calculating face flux field phi

Selecting incompressible transport model Newtonian
Selecting turbulence model type RAS
Selecting RAS turbulence model kOmegaSST
Selecting patchDistMethod meshWave
RAS
{
    RASModel        kOmegaSST;
    turbulence      on;
    printCoeffs     on;
    alphaK1         0.85;
    alphaK2         1;
    alphaOmega1     0.5;
    alphaOmega2     0.856;
    gamma1          0.555556;
    gamma2          0.44;
    beta1           0.075;
    beta2           0.0828;
    betaStar        0.09;
    a1              0.31;
    b1              1;
    c1              10;
    F3              false;
    decayControl    false;
    kInf            0;
    omegaInf        0;
}

No MRF models present

No finite volume options present

Starting time loop

Selecting finite volume options type scalarSemiImplicitSource
    Source: unitySource
    - selecting all cells
    - selected 6036 cell(s) with volume 0.03165
Time = 1

smoothSolver:  Solving for Ux, Initial residual = 0, Final residual = 0, No Iterations 0
smoothSolver:  Solving for Uy, Initial residual = 1, Final residual = 0.0633437, No Iterations 2
GAMG:  Solving for p, Initial residual = 1, Final residual = 0.0826412, No Iterations 9
time step continuity errors : sum local = 0.00522219, global = -0.000309615, cumulative = -0.000309615
smoothSolver:  Solving for omega, Initial residual = 0.0181857, Final residual = 0.00167042, No Iterations 3
smoothSolver:  Solving for k, Initial residual = 1, Final residual = 0.0379646, No Iterations 1
ExecutionTime = 0.05 s  ClockTime = 0 s

scalarTransport execute: age
smoothSolver:  Solving for age, Initial residual = 1, Final residual = 0.0850433, No Iterations 6

Time = 2

smoothSolver:  Solving for Ux, Initial residual = 0.371974, Final residual = 0.0254368, No Iterations 6
smoothSolver:  Solving for Uy, Initial residual = 0.344336, Final residual = 0.0227973, No Iterations 5
GAMG:  Solving for p, Initial residual = 0.0225245, Final residual = 0.00146274, No Iterations 6
time step continuity errors : sum local = 0.0146604, global = 0.00247081, cumulative = 0.0021612
smoothSolver:  Solving for omega, Initial residual = 0.106517, Final residual = 0.00296324, No Iterations 1
smoothSolver:  Solving for k, Initial residual = 0.110748, Final residual = 0.0084611, No Iterations 2
ExecutionTime = 0.06 s  ClockTime = 0 s

scalarTransport execute: age
smoothSolver:  Solving for age, Initial residual = 0.407945, Final residual = 0.0328681, No Iterations 6

Time = 3

smoothSolver:  Solving for Ux, Initial residual = 0.131786, Final residual = 0.0126515, No Iterations 4
smoothSolver:  Solving for Uy, Initial residual = 0.119146, Final residual = 0.0101345, No Iterations 4
GAMG:  Solving for p, Initial residual = 0.0184167, Final residual = 0.000967769, No Iterations 5
time step continuity errors : sum local = 0.00448096, global = 0.000764004, cumulative = 0.0029252
smoothSolver:  Solving for omega, Initial residual = 0.00826301, Final residual = 0.000629783, No Iterations 1
smoothSolver:  Solving for k, Initial residual = 0.0570051, Final residual = 0.00354672, No Iterations 3
ExecutionTime = 0.07 s  ClockTime = 0 s

scalarTransport execute: age
smoothSolver:  Solving for age, Initial residual = 0.214284, Final residual = 0.0202433, No Iterations 5

Time = 4

smoothSolver:  Solving for Ux, Initial residual = 0.0484066, Final residual = 0.00424115, No Iterations 4
smoothSolver:  Solving for Uy, Initial residual = 0.0568103, Final residual = 0.00558406, No Iterations 3
GAMG:  Solving for p, Initial residual = 0.0151679, Final residual = 0.001315, No Iterations 3
time step continuity errors : sum local = 0.00397041, global = 0.000882626, cumulative = 0.00380783
smoothSolver:  Solving for omega, Initial residual = 0.00466686, Final residual = 0.00032651, No Iterations 1
smoothSolver:  Solving for k, Initial residual = 0.0355021, Final residual = 0.00329245, No Iterations 3
ExecutionTime = 0.08 s  ClockTime = 0 s

scalarTransport execute: age
smoothSolver:  Solving for age, Initial residual = 0.100993, Final residual = 0.00897896, No Iterations 5

Time = 5

smoothSolver:  Solving for Ux, Initial residual = 0.0205427, Final residual = 0.00132049, No Iterations 5
smoothSolver:  Solving for Uy, Initial residual = 0.0354625, Final residual = 0.0035143, No Iterations 3
GAMG:  Solving for p, Initial residual = 0.0114807, Final residual = 0.000694243, No Iterations 3
time step continuity errors : sum local = 0.00190591, global = 0.000467868, cumulative = 0.00427569
smoothSolver:  Solving for omega, Initial residual = 0.00172482, Final residual = 0.000120762, No Iterations 1
smoothSolver:  Solving for k, Initial residual = 0.0247116, Final residual = 0.00182944, No Iterations 4
ExecutionTime = 0.09 s  ClockTime = 0 s

scalarTransport execute: age
smoothSolver:  Solving for age, Initial residual = 0.0651045, Final residual = 0.00536835, No Iterations 5

Time = 6

smoothSolver:  Solving for Ux, Initial residual = 0.0196929, Final residual = 0.00193951, No Iterations 4
smoothSolver:  Solving for Uy, Initial residual = 0.0158984, Final residual = 0.00153866, No Iterations 4
GAMG:  Solving for p, Initial residual = 0.00935082, Final residual = 0.000559502, No Iterations 2
time step continuity errors : sum local = 0.00143385, global = 0.000313787, cumulative = 0.00458948
smoothSolver:  Solving for omega, Initial residual = 0.000825383, Final residual = 6.8509e-05, No Iterations 1
smoothSolver:  Solving for k, Initial residual = 0.0191337, Final residual = 0.00176226, No Iterations 4
ExecutionTime = 0.11 s  ClockTime = 0 s

scalarTransport execute: age
smoothSolver:  Solving for age, Initial residual = 0.046633, Final residual = 0.00455214, No Iterations 4

Time = 7

smoothSolver:  Solving for Ux, Initial residual = 0.0362845, Final residual = 0.00146768, No Iterations 1
smoothSolver:  Solving for Uy, Initial residual = 0.0167339, Final residual = 0.00117036, No Iterations 4
GAMG:  Solving for p, Initial residual = 0.00765495, Final residual = 0.000517182, No Iterations 2
time step continuity errors : sum local = 0.00131317, global = 0.000260935, cumulative = 0.00485042
smoothSolver:  Solving for omega, Initial residual = 0.000348814, Final residual = 2.74863e-05, No Iterations 1
smoothSolver:  Solving for k, Initial residual = 0.0157716, Final residual = 0.001055, No Iterations 5
ExecutionTime = 0.12 s  ClockTime = 0 s

scalarTransport execute: age
smoothSolver:  Solving for age, Initial residual = 0.0351071, Final residual = 0.00320011, No Iterations 4

Time = 8

smoothSolver:  Solving for Ux, Initial residual = 0.0128317, Final residual = 0.00103763, No Iterations 5
smoothSolver:  Solving for Uy, Initial residual = 0.0141772, Final residual = 0.00138985, No Iterations 3
GAMG:  Solving for p, Initial residual = 0.00693171, Final residual = 0.00038594, No Iterations 2
time step continuity errors : sum local = 0.000972975, global = 0.000187139, cumulative = 0.00503755
smoothSolver:  Solving for omega, Initial residual = 0.000177327, Final residual = 6.23781e-06, No Iterations 2
smoothSolver:  Solving for k, Initial residual = 0.0137423, Final residual = 0.00103477, No Iterations 5
ExecutionTime = 0.13 s  ClockTime = 0 s

scalarTransport execute: age
smoothSolver:  Solving for age, Initial residual = 0.0275422, Final residual = 0.00230107, No Iterations 4

Time = 9

smoothSolver:  Solving for Ux, Initial residual = 0.0119901, Final residual = 0.000998646, No Iterations 5
smoothSolver:  Solving for Uy, Initial residual = 0.00748966, Final residual = 0.000630856, No Iterations 5
GAMG:  Solving for p, Initial residual = 0.00467547, Final residual = 0.000348827, No Iterations 2
time step continuity errors : sum local = 0.000877919, global = 0.000121084, cumulative = 0.00515864
smoothSolver:  Solving for omega, Initial residual = 9.20234e-05, Final residual = 3.0488e-06, No Iterations 2
smoothSolver:  Solving for k, Initial residual = 0.0124393, Final residual = 0.00101626, No Iterations 5
ExecutionTime = 0.14 s  ClockTime = 0 s

scalarTransport execute: age
smoothSolver:  Solving for age, Initial residual = 0.0221262, Final residual = 0.00170283, No Iterations 4

Time = 10

smoothSolver:  Solving for Ux, Initial residual = 0.0105582, Final residual = 0.00090488, No Iterations 5
smoothSolver:  Solving for Uy, Initial residual = 0.00646501, Final residual = 0.000574857, No Iterations 5
GAMG:  Solving for p, Initial residual = 0.00383704, Final residual = 0.000211045, No Iterations 2
time step continuity errors : sum local = 0.000529387, global = 6.61964e-05, cumulative = 0.00522483
smoothSolver:  Solving for omega, Initial residual = 6.20573e-05, Final residual = 2.57727e-06, No Iterations 2
smoothSolver:  Solving for k, Initial residual = 0.0115456, Final residual = 0.00100131, No Iterations 5
ExecutionTime = 0.16 s  ClockTime = 0 s

scalarTransport execute: age
smoothSolver:  Solving for age, Initial residual = 0.0179357, Final residual = 0.0016466, No Iterations 3

Time = 11

smoothSolver:  Solving for Ux, Initial residual = 0.0111862, Final residual = 0.000754481, No Iterations 5
smoothSolver:  Solving for Uy, Initial residual = 0.00719701, Final residual = 0.00054006, No Iterations 5
GAMG:  Solving for p, Initial residual = 0.0034474, Final residual = 0.0002067, No Iterations 2
time step continuity errors : sum local = 0.000517936, global = 2.74456e-05, cumulative = 0.00525228
smoothSolver:  Solving for omega, Initial residual = 3.99915e-05, Final residual = 1.73258e-06, No Iterations 2
smoothSolver:  Solving for k, Initial residual = 0.0109532, Final residual = 0.000987619, No Iterations 5
ExecutionTime = 0.17 s  ClockTime = 0 s

scalarTransport execute: age
smoothSolver:  Solving for age, Initial residual = 0.0149508, Final residual = 0.00128197, No Iterations 3

Time = 12

smoothSolver:  Solving for Ux, Initial residual = 0.00849478, Final residual = 0.000770665, No Iterations 5
smoothSolver:  Solving for Uy, Initial residual = 0.00550361, Final residual = 0.00050352, No Iterations 5
GAMG:  Solving for p, Initial residual = 0.00293537, Final residual = 0.000194601, No Iterations 2
time step continuity errors : sum local = 0.000487653, global = 1.11669e-05, cumulative = 0.00526345
smoothSolver:  Solving for omega, Initial residual = 3.01286e-05, Final residual = 1.45882e-06, No Iterations 2
smoothSolver:  Solving for k, Initial residual = 0.0104726, Final residual = 0.000975884, No Iterations 5
ExecutionTime = 0.18 s  ClockTime = 0 s

scalarTransport execute: age
smoothSolver:  Solving for age, Initial residual = 0.0127533, Final residual = 0.00105158, No Iterations 3

Time = 13

smoothSolver:  Solving for Ux, Initial residual = 0.00277468, Final residual = 6.44691e-05, No Iterations 1
smoothSolver:  Solving for Uy, Initial residual = 0.615189, Final residual = 0.000700273, No Iterations 1
GAMG:  Solving for p, Initial residual = 0.00199314, Final residual = 0.000109021, No Iterations 2
time step continuity errors : sum local = 0.000273251, global = 9.76582e-06, cumulative = 0.00527321
smoothSolver:  Solving for omega, Initial residual = 1.65336e-05, Final residual = 6.62648e-07, No Iterations 2
smoothSolver:  Solving for k, Initial residual = 0.0100905, Final residual = 0.000964966, No Iterations 5
ExecutionTime = 0.19 s  ClockTime = 0 s

scalarTransport execute: age
smoothSolver:  Solving for age, Initial residual = 0.0108184, Final residual = 0.000896734, No Iterations 3

Time = 14

smoothSolver:  Solving for Ux, Initial residual = 0.00698527, Final residual = 0.000687618, No Iterations 5
smoothSolver:  Solving for Uy, Initial residual = 0.0046899, Final residual = 0.000459166, No Iterations 5
GAMG:  Solving for p, Initial residual = 0.00218309, Final residual = 0.000154463, No Iterations 2
time step continuity errors : sum local = 0.000387109, global = 1.23143e-06, cumulative = 0.00527444
smoothSolver:  Solving for omega, Initial residual = 2.80455e-05, Final residual = 1.0704e-06, No Iterations 2
smoothSolver:  Solving for k, Initial residual = 0.00979104, Final residual = 0.000952087, No Iterations 5
ExecutionTime = 0.2 s  ClockTime = 0 s

scalarTransport execute: age
smoothSolver:  Solving for age, Initial residual = 0.00937568, Final residual = 0.000858034, No Iterations 3

Time = 15

smoothSolver:  Solving for Ux, Initial residual = 0.00641733, Final residual = 0.000417183, No Iterations 6
smoothSolver:  Solving for Uy, Initial residual = 0.00431472, Final residual = 0.000283592, No Iterations 6
GAMG:  Solving for p, Initial residual = 0.00211064, Final residual = 0.000175314, No Iterations 2
time step continuity errors : sum local = 0.00043939, global = 8.25591e-07, cumulative = 0.00527527
smoothSolver:  Solving for omega, Initial residual = 2.28852e-05, Final residual = 9.19542e-07, No Iterations 2
smoothSolver:  Solving for k, Initial residual = 0.0094625, Final residual = 0.000933148, No Iterations 5
ExecutionTime = 0.21 s  ClockTime = 0 s

scalarTransport execute: age
smoothSolver:  Solving for age, Initial residual = 0.00844718, Final residual = 0.000758739, No Iterations 4

Time = 16

smoothSolver:  Solving for Ux, Initial residual = 0.00806485, Final residual = 0.000734514, No Iterations 4
smoothSolver:  Solving for Uy, Initial residual = 0.011743, Final residual = 0.000955357, No Iterations 3
GAMG:  Solving for p, Initial residual = 0.00188165, Final residual = 0.000165964, No Iterations 2
time step continuity errors : sum local = 0.00041597, global = 3.93529e-06, cumulative = 0.00527921
smoothSolver:  Solving for omega, Initial residual = 1.73538e-05, Final residual = 8.4369e-07, No Iterations 2
smoothSolver:  Solving for k, Initial residual = 0.00915673, Final residual = 0.000904481, No Iterations 5
ExecutionTime = 0.22 s  ClockTime = 0 s

scalarTransport execute: age
smoothSolver:  Solving for age, Initial residual = 0.00800459, Final residual = 0.000701507, No Iterations 5

Time = 17

smoothSolver:  Solving for Ux, Initial residual = 0.00580946, Final residual = 0.000557277, No Iterations 5
smoothSolver:  Solving for Uy, Initial residual = 0.0040785, Final residual = 0.000404149, No Iterations 5
GAMG:  Solving for p, Initial residual = 0.00187982, Final residual = 0.000151571, No Iterations 2
time step continuity errors : sum local = 0.000379988, global = 9.32167e-06, cumulative = 0.00528853
smoothSolver:  Solving for omega, Initial residual = 2.35558e-05, Final residual = 8.34786e-07, No Iterations 2
smoothSolver:  Solving for k, Initial residual = 0.00877601, Final residual = 0.000874497, No Iterations 5
ExecutionTime = 0.23 s  ClockTime = 0 s

scalarTransport execute: age
smoothSolver:  Solving for age, Initial residual = 0.00775625, Final residual = 0.000765429, No Iterations 5

Time = 18

smoothSolver:  Solving for Ux, Initial residual = 0.00825115, Final residual = 0.000740141, No Iterations 4
smoothSolver:  Solving for Uy, Initial residual = 0.00433351, Final residual = 0.000383869, No Iterations 5
GAMG:  Solving for p, Initial residual = 0.00174071, Final residual = 0.000138085, No Iterations 2
time step continuity errors : sum local = 0.000346165, global = 1.7239e-05, cumulative = 0.00530577
smoothSolver:  Solving for omega, Initial residual = 2.38154e-05, Final residual = 7.91608e-07, No Iterations 2
smoothSolver:  Solving for k, Initial residual = 0.00841087, Final residual = 0.000537034, No Iterations 6
ExecutionTime = 0.24 s  ClockTime = 0 s

scalarTransport execute: age
smoothSolver:  Solving for age, Initial residual = 0.00716922, Final residual = 0.00060182, No Iterations 6

Time = 19

smoothSolver:  Solving for Ux, Initial residual = 0.00602965, Final residual = 0.000497025, No Iterations 5
smoothSolver:  Solving for Uy, Initial residual = 0.00378756, Final residual = 0.000353239, No Iterations 5
GAMG:  Solving for p, Initial residual = 0.0016643, Final residual = 0.000137131, No Iterations 2
time step continuity errors : sum local = 0.000343789, global = 2.21046e-05, cumulative = 0.00532787
smoothSolver:  Solving for omega, Initial residual = 3.06785e-05, Final residual = 2.48209e-06, No Iterations 1
smoothSolver:  Solving for k, Initial residual = 0.0080519, Final residual = 0.000516382, No Iterations 6
ExecutionTime = 0.25 s  ClockTime = 0 s

scalarTransport execute: age
smoothSolver:  Solving for age, Initial residual = 0.00697943, Final residual = 0.00062143, No Iterations 5

Time = 20

smoothSolver:  Solving for Ux, Initial residual = 0.01912, Final residual = 0.00165933, No Iterations 1
smoothSolver:  Solving for Uy, Initial residual = 0.00466359, Final residual = 0.000339047, No Iterations 5
GAMG:  Solving for p, Initial residual = 0.00214463, Final residual = 0.000142803, No Iterations 2
time step continuity errors : sum local = 0.00035812, global = 2.73651e-05, cumulative = 0.00535524
smoothSolver:  Solving for omega, Initial residual = 2.60121e-05, Final residual = 2.27382e-06, No Iterations 1
smoothSolver:  Solving for k, Initial residual = 0.00773346, Final residual = 0.000495733, No Iterations 6
ExecutionTime = 0.27 s  ClockTime = 0 s

scalarTransport execute: age
smoothSolver:  Solving for age, Initial residual = 0.00645756, Final residual = 0.000513079, No Iterations 5

Time = 21

smoothSolver:  Solving for Ux, Initial residual = 0.00650846, Final residual = 0.000479217, No Iterations 5
smoothSolver:  Solving for Uy, Initial residual = 0.00407532, Final residual = 0.00027374, No Iterations 5
GAMG:  Solving for p, Initial residual = 0.00193568, Final residual = 0.000185224, No Iterations 2
time step continuity errors : sum local = 0.000464483, global = 3.16467e-05, cumulative = 0.00538688
smoothSolver:  Solving for omega, Initial residual = 2.80892e-05, Final residual = 2.4191e-06, No Iterations 1
smoothSolver:  Solving for k, Initial residual = 0.00740755, Final residual = 0.000474829, No Iterations 6
ExecutionTime = 0.28 s  ClockTime = 0 s

scalarTransport execute: age
smoothSolver:  Solving for age, Initial residual = 0.00621975, Final residual = 0.000510706, No Iterations 5

Time = 22

smoothSolver:  Solving for Ux, Initial residual = 0.00621699, Final residual = 0.000436115, No Iterations 5
smoothSolver:  Solving for Uy, Initial residual = 0.00423187, Final residual = 0.000290508, No Iterations 5
GAMG:  Solving for p, Initial residual = 0.00159668, Final residual = 0.000147393, No Iterations 2
time step continuity errors : sum local = 0.000369564, global = 3.12911e-05, cumulative = 0.00541817
smoothSolver:  Solving for omega, Initial residual = 2.36511e-05, Final residual = 2.2947e-06, No Iterations 1
smoothSolver:  Solving for k, Initial residual = 0.00706723, Final residual = 0.000453904, No Iterations 6
ExecutionTime = 0.3 s  ClockTime = 0 s

scalarTransport execute: age
smoothSolver:  Solving for age, Initial residual = 0.00587207, Final residual = 0.000457008, No Iterations 5

Time = 23

smoothSolver:  Solving for Ux, Initial residual = 0.00873784, Final residual = 0.000675237, No Iterations 1
smoothSolver:  Solving for Uy, Initial residual = 0.0914716, Final residual = 0.00149385, No Iterations 1
GAMG:  Solving for p, Initial residual = 0.00108333, Final residual = 5.89845e-05, No Iterations 2
time step continuity errors : sum local = 0.000147863, global = 2.59446e-05, cumulative = 0.00544412
smoothSolver:  Solving for omega, Initial residual = 2.72488e-05, Final residual = 2.43182e-06, No Iterations 1
smoothSolver:  Solving for k, Initial residual = 0.00681819, Final residual = 0.000678462, No Iterations 5
ExecutionTime = 0.31 s  ClockTime = 0 s

scalarTransport execute: age
smoothSolver:  Solving for age, Initial residual = 0.00532724, Final residual = 0.000505425, No Iterations 4

Time = 24

smoothSolver:  Solving for Ux, Initial residual = 0.00714082, Final residual = 0.000574241, No Iterations 4
smoothSolver:  Solving for Uy, Initial residual = 0.00343872, Final residual = 0.000302962, No Iterations 5
GAMG:  Solving for p, Initial residual = 0.00126525, Final residual = 8.84614e-05, No Iterations 2
time step continuity errors : sum local = 0.000221671, global = 2.37689e-05, cumulative = 0.00546789
smoothSolver:  Solving for omega, Initial residual = 2.85604e-05, Final residual = 2.50072e-06, No Iterations 1
smoothSolver:  Solving for k, Initial residual = 0.00646418, Final residual = 0.00041321, No Iterations 6
ExecutionTime = 0.32 s  ClockTime = 0 s

scalarTransport execute: age
smoothSolver:  Solving for age, Initial residual = 0.00468957, Final residual = 0.000389675, No Iterations 4

Time = 25

smoothSolver:  Solving for Ux, Initial residual = 0.0104744, Final residual = 0.000753513, No Iterations 3
smoothSolver:  Solving for Uy, Initial residual = 0.00385933, Final residual = 0.000285614, No Iterations 5
GAMG:  Solving for p, Initial residual = 0.00120975, Final residual = 0.000105281, No Iterations 2
time step continuity errors : sum local = 0.000263766, global = 2.55475e-05, cumulative = 0.00549343
smoothSolver:  Solving for omega, Initial residual = 2.72727e-05, Final residual = 2.3068e-06, No Iterations 1
smoothSolver:  Solving for k, Initial residual = 0.00610766, Final residual = 0.000392458, No Iterations 6
ExecutionTime = 0.33 s  ClockTime = 0 s

scalarTransport execute: age
smoothSolver:  Solving for age, Initial residual = 0.00392989, Final residual = 0.000363803, No Iterations 4

Time = 26

smoothSolver:  Solving for Ux, Initial residual = 0.00587291, Final residual = 0.000563056, No Iterations 4
smoothSolver:  Solving for Uy, Initial residual = 0.00288126, Final residual = 0.000261615, No Iterations 5
GAMG:  Solving for p, Initial residual = 0.000974157, Final residual = 9.48193e-05, No Iterations 2
time step continuity errors : sum local = 0.000237515, global = 2.38351e-05, cumulative = 0.00551727
smoothSolver:  Solving for omega, Initial residual = 1.95815e-05, Final residual = 1.76302e-06, No Iterations 1
smoothSolver:  Solving for k, Initial residual = 0.00580809, Final residual = 0.000371973, No Iterations 6
ExecutionTime = 0.35 s  ClockTime = 0 s

scalarTransport execute: age
smoothSolver:  Solving for age, Initial residual = 0.00353397, Final residual = 0.000302931, No Iterations 4

Time = 27

smoothSolver:  Solving for Ux, Initial residual = 0.00582711, Final residual = 0.000533694, No Iterations 4
smoothSolver:  Solving for Uy, Initial residual = 0.00261688, Final residual = 0.000251255, No Iterations 5
GAMG:  Solving for p, Initial residual = 0.00109582, Final residual = 3.73146e-05, No Iterations 3
time step continuity errors : sum local = 9.34402e-05, global = 1.54465e-05, cumulative = 0.00553272
smoothSolver:  Solving for omega, Initial residual = 2.78815e-05, Final residual = 2.26498e-06, No Iterations 1
smoothSolver:  Solving for k, Initial residual = 0.00549202, Final residual = 0.00035169, No Iterations 6
ExecutionTime = 0.37 s  ClockTime = 0 s

scalarTransport execute: age
smoothSolver:  Solving for age, Initial residual = 0.0031863, Final residual = 0.000293651, No Iterations 4

Time = 28

smoothSolver:  Solving for Ux, Initial residual = 0.00345967, Final residual = 0.000321052, No Iterations 5
smoothSolver:  Solving for Uy, Initial residual = 0.0069291, Final residual = 0.000575322, No Iterations 3
GAMG:  Solving for p, Initial residual = 0.00113369, Final residual = 0.000108635, No Iterations 2
time step continuity errors : sum local = 0.000271865, global = 1.14504e-05, cumulative = 0.00554417
smoothSolver:  Solving for omega, Initial residual = 2.30588e-05, Final residual = 2.19444e-06, No Iterations 1
smoothSolver:  Solving for k, Initial residual = 0.00523012, Final residual = 0.00051894, No Iterations 5
ExecutionTime = 0.38 s  ClockTime = 0 s

scalarTransport execute: age
smoothSolver:  Solving for age, Initial residual = 0.00299883, Final residual = 0.000251252, No Iterations 5

Time = 29

smoothSolver:  Solving for Ux, Initial residual = 0.005461, Final residual = 0.000450632, No Iterations 4
smoothSolver:  Solving for Uy, Initial residual = 0.00462547, Final residual = 0.000388765, No Iterations 4
GAMG:  Solving for p, Initial residual = 0.000985351, Final residual = 8.9593e-05, No Iterations 2
time step continuity errors : sum local = 0.000224181, global = 7.78439e-06, cumulative = 0.00555195
smoothSolver:  Solving for omega, Initial residual = 2.10739e-05, Final residual = 1.79966e-06, No Iterations 1
smoothSolver:  Solving for k, Initial residual = 0.00500513, Final residual = 0.000489555, No Iterations 5
ExecutionTime = 0.39 s  ClockTime = 0 s

scalarTransport execute: age
smoothSolver:  Solving for age, Initial residual = 0.00284275, Final residual = 0.000283839, No Iterations 4

Time = 30

smoothSolver:  Solving for Ux, Initial residual = 0.00353645, Final residual = 0.000305062, No Iterations 5
smoothSolver:  Solving for Uy, Initial residual = 0.00246642, Final residual = 0.000164528, No Iterations 6
GAMG:  Solving for p, Initial residual = 0.00100941, Final residual = 3.52985e-05, No Iterations 3
time step continuity errors : sum local = 8.8325e-05, global = 8.63083e-06, cumulative = 0.00556058
smoothSolver:  Solving for omega, Initial residual = 2.28386e-05, Final residual = 2.01008e-06, No Iterations 1
smoothSolver:  Solving for k, Initial residual = 0.00461072, Final residual = 0.000460441, No Iterations 5
ExecutionTime = 0.4 s  ClockTime = 0 s

scalarTransport execute: age
smoothSolver:  Solving for age, Initial residual = 0.00254383, Final residual = 0.00020851, No Iterations 5

Time = 31

smoothSolver:  Solving for Ux, Initial residual = 0.00362855, Final residual = 0.000299532, No Iterations 5
smoothSolver:  Solving for Uy, Initial residual = 0.00230663, Final residual = 0.000230609, No Iterations 5
GAMG:  Solving for p, Initial residual = 0.000841434, Final residual = 3.22138e-05, No Iterations 3
time step continuity errors : sum local = 8.05877e-05, global = 7.42808e-06, cumulative = 0.00556801
smoothSolver:  Solving for omega, Initial residual = 1.79351e-05, Final residual = 1.64087e-06, No Iterations 1
smoothSolver:  Solving for k, Initial residual = 0.00424143, Final residual = 0.00027606, No Iterations 6
ExecutionTime = 0.43 s  ClockTime = 0 s

scalarTransport execute: age
smoothSolver:  Solving for age, Initial residual = 0.00236802, Final residual = 0.000213308, No Iterations 5

Time = 32

smoothSolver:  Solving for Ux, Initial residual = 0.00690343, Final residual = 0.000600506, No Iterations 3
smoothSolver:  Solving for Uy, Initial residual = 0.00240494, Final residual = 0.00022374, No Iterations 5
GAMG:  Solving for p, Initial residual = 0.000861545, Final residual = 7.38957e-05, No Iterations 2
time step continuity errors : sum local = 0.000184832, global = 7.20748e-06, cumulative = 0.00557522
smoothSolver:  Solving for omega, Initial residual = 1.90167e-05, Final residual = 1.80676e-06, No Iterations 1
smoothSolver:  Solving for k, Initial residual = 0.0040478, Final residual = 0.000402879, No Iterations 5
ExecutionTime = 0.44 s  ClockTime = 0 s

scalarTransport execute: age
smoothSolver:  Solving for age, Initial residual = 0.00218031, Final residual = 0.000216941, No Iterations 5

Time = 33

smoothSolver:  Solving for Ux, Initial residual = 0.00263772, Final residual = 4.96559e-05, No Iterations 1
smoothSolver:  Solving for Uy, Initial residual = 0.514091, Final residual = 0.000413121, No Iterations 1
GAMG:  Solving for p, Initial residual = 0.000690338, Final residual = 6.8295e-05, No Iterations 2
time step continuity errors : sum local = 0.00017084, global = 7.12138e-06, cumulative = 0.00558234
smoothSolver:  Solving for omega, Initial residual = 1.1613e-05, Final residual = 1.1283e-06, No Iterations 1
smoothSolver:  Solving for k, Initial residual = 0.00401684, Final residual = 0.000376237, No Iterations 5
ExecutionTime = 0.45 s  ClockTime = 0 s

scalarTransport execute: age
smoothSolver:  Solving for age, Initial residual = 0.00224239, Final residual = 0.000221426, No Iterations 6

Time = 34

smoothSolver:  Solving for Ux, Initial residual = 0.00502057, Final residual = 0.000405202, No Iterations 4
smoothSolver:  Solving for Uy, Initial residual = 0.00235044, Final residual = 0.000202391, No Iterations 5
GAMG:  Solving for p, Initial residual = 0.000855696, Final residual = 3.06324e-05, No Iterations 3
time step continuity errors : sum local = 7.6625e-05, global = 5.94292e-06, cumulative = 0.00558828
smoothSolver:  Solving for omega, Initial residual = 2.04401e-05, Final residual = 1.88168e-06, No Iterations 1
smoothSolver:  Solving for k, Initial residual = 0.00375897, Final residual = 0.000350423, No Iterations 5
ExecutionTime = 0.46 s  ClockTime = 0 s

scalarTransport execute: age
smoothSolver:  Solving for age, Initial residual = 0.00227668, Final residual = 0.000225031, No Iterations 6

Time = 35

smoothSolver:  Solving for Ux, Initial residual = 0.00271753, Final residual = 0.000269673, No Iterations 5
smoothSolver:  Solving for Uy, Initial residual = 0.00226383, Final residual = 0.000196285, No Iterations 5
GAMG:  Solving for p, Initial residual = 0.000780353, Final residual = 3.44299e-05, No Iterations 3
time step continuity errors : sum local = 8.61138e-05, global = 7.48772e-06, cumulative = 0.00559577
smoothSolver:  Solving for omega, Initial residual = 1.73093e-05, Final residual = 1.61035e-06, No Iterations 1
smoothSolver:  Solving for k, Initial residual = 0.00331137, Final residual = 0.000325578, No Iterations 5
ExecutionTime = 0.47 s  ClockTime = 0 s

scalarTransport execute: age
smoothSolver:  Solving for age, Initial residual = 0.00217225, Final residual = 0.000213732, No Iterations 5

Time = 36

smoothSolver:  Solving for Ux, Initial residual = 0.00301802, Final residual = 0.000219436, No Iterations 4
smoothSolver:  Solving for Uy, Initial residual = 0.0317765, Final residual = 0.00103007, No Iterations 1
GAMG:  Solving for p, Initial residual = 0.000935192, Final residual = 8.11691e-05, No Iterations 2
time step continuity errors : sum local = 0.000202962, global = 8.78519e-06, cumulative = 0.00560455
smoothSolver:  Solving for omega, Initial residual = 1.67477e-05, Final residual = 1.62217e-06, No Iterations 1
smoothSolver:  Solving for k, Initial residual = 0.00323399, Final residual = 0.000301982, No Iterations 5
ExecutionTime = 0.48 s  ClockTime = 0 s

scalarTransport execute: age
smoothSolver:  Solving for age, Initial residual = 0.00196249, Final residual = 0.00017356, No Iterations 7

Time = 37

smoothSolver:  Solving for Ux, Initial residual = 0.00302655, Final residual = 0.000221676, No Iterations 5
smoothSolver:  Solving for Uy, Initial residual = 0.00220622, Final residual = 0.000218895, No Iterations 5
GAMG:  Solving for p, Initial residual = 0.000916166, Final residual = 8.18358e-05, No Iterations 2
time step continuity errors : sum local = 0.000204619, global = 1.10257e-05, cumulative = 0.00561558
smoothSolver:  Solving for omega, Initial residual = 2.04103e-05, Final residual = 1.53193e-06, No Iterations 1
smoothSolver:  Solving for k, Initial residual = 0.00300525, Final residual = 0.000279512, No Iterations 5
ExecutionTime = 0.5 s  ClockTime = 0 s

scalarTransport execute: age
smoothSolver:  Solving for age, Initial residual = 0.00185455, Final residual = 0.000163237, No Iterations 8

Time = 38

smoothSolver:  Solving for Ux, Initial residual = 0.00268964, Final residual = 0.000219395, No Iterations 5
smoothSolver:  Solving for Uy, Initial residual = 0.00195606, Final residual = 0.000132509, No Iterations 6
GAMG:  Solving for p, Initial residual = 0.000856266, Final residual = 8.21623e-05, No Iterations 2
time step continuity errors : sum local = 0.000205441, global = 1.44905e-05, cumulative = 0.00563007
smoothSolver:  Solving for omega, Initial residual = 1.71191e-05, Final residual = 1.49777e-06, No Iterations 1
smoothSolver:  Solving for k, Initial residual = 0.00266491, Final residual = 0.000258141, No Iterations 5
ExecutionTime = 0.51 s  ClockTime = 0 s

scalarTransport execute: age
smoothSolver:  Solving for age, Initial residual = 0.00174735, Final residual = 0.000157821, No Iterations 6

Time = 39

smoothSolver:  Solving for Ux, Initial residual = 0.0107803, Final residual = 0.00100705, No Iterations 1
smoothSolver:  Solving for Uy, Initial residual = 0.00262302, Final residual = 0.00017649, No Iterations 5
GAMG:  Solving for p, Initial residual = 0.00103066, Final residual = 9.47454e-05, No Iterations 2
time step continuity errors : sum local = 0.000236928, global = 1.54517e-05, cumulative = 0.00564552
smoothSolver:  Solving for omega, Initial residual = 1.45755e-05, Final residual = 1.43341e-06, No Iterations 1
smoothSolver:  Solving for k, Initial residual = 0.00259113, Final residual = 0.00023802, No Iterations 5
ExecutionTime = 0.52 s  ClockTime = 0 s

scalarTransport execute: age
smoothSolver:  Solving for age, Initial residual = 0.00171038, Final residual = 0.000140197, No Iterations 6

Time = 40

smoothSolver:  Solving for Ux, Initial residual = 0.00260747, Final residual = 0.000244556, No Iterations 5
smoothSolver:  Solving for Uy, Initial residual = 0.00177321, Final residual = 0.000141812, No Iterations 5
GAMG:  Solving for p, Initial residual = 0.000911745, Final residual = 2.40379e-05, No Iterations 3
time step continuity errors : sum local = 6.01104e-05, global = 1.23514e-05, cumulative = 0.00565787
smoothSolver:  Solving for omega, Initial residual = 1.42967e-05, Final residual = 1.25886e-06, No Iterations 1
smoothSolver:  Solving for k, Initial residual = 0.00235184, Final residual = 0.000219049, No Iterations 5
ExecutionTime = 0.53 s  ClockTime = 0 s

scalarTransport execute: age
smoothSolver:  Solving for age, Initial residual = 0.00184085, Final residual = 0.00017866, No Iterations 6

Time = 41

smoothSolver:  Solving for Ux, Initial residual = 0.00234405, Final residual = 0.000222208, No Iterations 5
smoothSolver:  Solving for Uy, Initial residual = 0.00241946, Final residual = 0.000226547, No Iterations 4
GAMG:  Solving for p, Initial residual = 0.000789426, Final residual = 2.43033e-05, No Iterations 3
time step continuity errors : sum local = 6.07448e-05, global = 1.04174e-05, cumulative = 0.00566829
smoothSolver:  Solving for omega, Initial residual = 1.31251e-05, Final residual = 4.27978e-07, No Iterations 2
smoothSolver:  Solving for k, Initial residual = 0.00214078, Final residual = 0.000201204, No Iterations 5
ExecutionTime = 0.54 s  ClockTime = 0 s

scalarTransport execute: age
smoothSolver:  Solving for age, Initial residual = 0.00179884, Final residual = 0.000162558, No Iterations 7

Time = 42

smoothSolver:  Solving for Ux, Initial residual = 0.00363769, Final residual = 0.000292892, No Iterations 4
smoothSolver:  Solving for Uy, Initial residual = 0.00195087, Final residual = 0.000161006, No Iterations 5
GAMG:  Solving for p, Initial residual = 0.000745865, Final residual = 7.33851e-05, No Iterations 2
time step continuity errors : sum local = 0.000183383, global = 9.77474e-06, cumulative = 0.00567807
smoothSolver:  Solving for omega, Initial residual = 1.86257e-05, Final residual = 1.53997e-06, No Iterations 1
smoothSolver:  Solving for k, Initial residual = 0.00198395, Final residual = 0.000184552, No Iterations 5
ExecutionTime = 0.55 s  ClockTime = 0 s

scalarTransport execute: age
smoothSolver:  Solving for age, Initial residual = 0.001704, Final residual = 0.000147222, No Iterations 8

Time = 43

smoothSolver:  Solving for Ux, Initial residual = 0.00227362, Final residual = 0.000194335, No Iterations 5
smoothSolver:  Solving for Uy, Initial residual = 0.00168997, Final residual = 0.000150718, No Iterations 5
GAMG:  Solving for p, Initial residual = 0.000657227, Final residual = 1.83687e-05, No Iterations 3
time step continuity errors : sum local = 4.59009e-05, global = 7.97688e-06, cumulative = 0.00568604
smoothSolver:  Solving for omega, Initial residual = 1.96324e-05, Final residual = 1.65609e-06, No Iterations 1
smoothSolver:  Solving for k, Initial residual = 0.00180986, Final residual = 0.00016899, No Iterations 5
ExecutionTime = 0.56 s  ClockTime = 0 s

scalarTransport execute: age
smoothSolver:  Solving for age, Initial residual = 0.00160199, Final residual = 0.000148388, No Iterations 7

Time = 44

smoothSolver:  Solving for Ux, Initial residual = 0.0118242, Final residual = 0.000426584, No Iterations 1
smoothSolver:  Solving for Uy, Initial residual = 0.0515543, Final residual = 0.000738865, No Iterations 1
GAMG:  Solving for p, Initial residual = 0.000545032, Final residual = 5.15583e-05, No Iterations 2
time step continuity errors : sum local = 0.000128818, global = 7.09555e-06, cumulative = 0.00569314
smoothSolver:  Solving for omega, Initial residual = 1.27734e-05, Final residual = 1.15133e-06, No Iterations 1
smoothSolver:  Solving for k, Initial residual = 0.00186065, Final residual = 0.000154534, No Iterations 5
ExecutionTime = 0.57 s  ClockTime = 0 s

scalarTransport execute: age
smoothSolver:  Solving for age, Initial residual = 0.00155584, Final residual = 0.000140828, No Iterations 7

Time = 45

smoothSolver:  Solving for Ux, Initial residual = 0.00638432, Final residual = 0.000221555, No Iterations 1
smoothSolver:  Solving for Uy, Initial residual = 0.145466, Final residual = 0.000654806, No Iterations 1
GAMG:  Solving for p, Initial residual = 0.00058574, Final residual = 5.63056e-05, No Iterations 2
time step continuity errors : sum local = 0.000140699, global = 5.96313e-06, cumulative = 0.0056991
smoothSolver:  Solving for omega, Initial residual = 1.76816e-05, Final residual = 1.483e-06, No Iterations 1
smoothSolver:  Solving for k, Initial residual = 0.00180396, Final residual = 0.000141112, No Iterations 5
ExecutionTime = 0.58 s  ClockTime = 0 s

scalarTransport execute: age
smoothSolver:  Solving for age, Initial residual = 0.00155718, Final residual = 0.000137771, No Iterations 7

Time = 46

smoothSolver:  Solving for Ux, Initial residual = 0.0399888, Final residual = 7.83632e-05, No Iterations 1
smoothSolver:  Solving for Uy, Initial residual = 0.0518676, Final residual = 0.000745721, No Iterations 1
GAMG:  Solving for p, Initial residual = 0.000568417, Final residual = 5.58358e-05, No Iterations 2
time step continuity errors : sum local = 0.000139502, global = 4.91643e-06, cumulative = 0.00570402
smoothSolver:  Solving for omega, Initial residual = 1.10881e-05, Final residual = 1.10384e-06, No Iterations 1
smoothSolver:  Solving for k, Initial residual = 0.00164034, Final residual = 0.000128642, No Iterations 5
ExecutionTime = 0.59 s  ClockTime = 0 s

scalarTransport execute: age
smoothSolver:  Solving for age, Initial residual = 0.00153089, Final residual = 0.00014026, No Iterations 7

Time = 47

smoothSolver:  Solving for Ux, Initial residual = 0.00209667, Final residual = 0.000174289, No Iterations 5
smoothSolver:  Solving for Uy, Initial residual = 0.00242978, Final residual = 0.000208126, No Iterations 4
GAMG:  Solving for p, Initial residual = 0.000747617, Final residual = 2.69048e-05, No Iterations 3
time step continuity errors : sum local = 6.72234e-05, global = 5.14657e-06, cumulative = 0.00570916
smoothSolver:  Solving for omega, Initial residual = 1.07903e-05, Final residual = 3.61221e-07, No Iterations 2
smoothSolver:  Solving for k, Initial residual = 0.00145749, Final residual = 0.000117094, No Iterations 5
ExecutionTime = 0.6 s  ClockTime = 0 s

scalarTransport execute: age
smoothSolver:  Solving for age, Initial residual = 0.00144259, Final residual = 0.00012419, No Iterations 7

Time = 48

smoothSolver:  Solving for Ux, Initial residual = 0.0019412, Final residual = 0.000166676, No Iterations 5
smoothSolver:  Solving for Uy, Initial residual = 0.00154954, Final residual = 0.000137024, No Iterations 5
GAMG:  Solving for p, Initial residual = 0.000672392, Final residual = 2.27697e-05, No Iterations 3
time step continuity errors : sum local = 5.68832e-05, global = 4.87151e-06, cumulative = 0.00571404
smoothSolver:  Solving for omega, Initial residual = 1.41359e-05, Final residual = 1.25832e-06, No Iterations 1
smoothSolver:  Solving for k, Initial residual = 0.00122241, Final residual = 0.000106453, No Iterations 5
ExecutionTime = 0.6 s  ClockTime = 0 s

scalarTransport execute: age
smoothSolver:  Solving for age, Initial residual = 0.00137914, Final residual = 0.000129259, No Iterations 6

Time = 49

smoothSolver:  Solving for Ux, Initial residual = 0.0102332, Final residual = 0.000716859, No Iterations 1
smoothSolver:  Solving for Uy, Initial residual = 0.00216104, Final residual = 0.000194739, No Iterations 4
GAMG:  Solving for p, Initial residual = 0.000701292, Final residual = 6.27127e-05, No Iterations 2
time step continuity errors : sum local = 0.000156637, global = 4.42553e-06, cumulative = 0.00571846
smoothSolver:  Solving for omega, Initial residual = 1.51625e-05, Final residual = 1.27568e-06, No Iterations 1
smoothSolver:  Solving for k, Initial residual = 0.00111383, Final residual = 9.66701e-05, No Iterations 5
ExecutionTime = 0.63 s  ClockTime = 0 s

scalarTransport execute: age
smoothSolver:  Solving for age, Initial residual = 0.00130971, Final residual = 0.00012453, No Iterations 6

Time = 50

smoothSolver:  Solving for Ux, Initial residual = 0.0023124, Final residual = 0.000172338, No Iterations 5
smoothSolver:  Solving for Uy, Initial residual = 0.00123307, Final residual = 0.000106531, No Iterations 5
GAMG:  Solving for p, Initial residual = 0.000650533, Final residual = 2.48966e-05, No Iterations 3
time step continuity errors : sum local = 6.21791e-05, global = 2.9295e-06, cumulative = 0.00572139
smoothSolver:  Solving for omega, Initial residual = 1.19011e-05, Final residual = 3.50009e-07, No Iterations 2
smoothSolver:  Solving for k, Initial residual = 0.00103546, Final residual = 8.76767e-05, No Iterations 5
ExecutionTime = 0.64 s  ClockTime = 0 s

scalarTransport execute: age
smoothSolver:  Solving for age, Initial residual = 0.00126847, Final residual = 0.000113107, No Iterations 6

Time = 51

smoothSolver:  Solving for Ux, Initial residual = 0.00234149, Final residual = 0.00022799, No Iterations 4
smoothSolver:  Solving for Uy, Initial residual = 0.00472541, Final residual = 0.000390343, No Iterations 2
GAMG:  Solving for p, Initial residual = 0.000633692, Final residual = 6.31265e-05, No Iterations 2
time step continuity errors : sum local = 0.000157633, global = 1.33877e-06, cumulative = 0.00572273
smoothSolver:  Solving for omega, Initial residual = 9.10961e-06, Final residual = 2.71506e-07, No Iterations 2
smoothSolver:  Solving for k, Initial residual = 0.0010925, Final residual = 7.94398e-05, No Iterations 5
ExecutionTime = 0.65 s  ClockTime = 0 s

scalarTransport execute: age
smoothSolver:  Solving for age, Initial residual = 0.00122109, Final residual = 0.000115351, No Iterations 6

Time = 52

smoothSolver:  Solving for Ux, Initial residual = 0.00154848, Final residual = 0.00014823, No Iterations 5
smoothSolver:  Solving for Uy, Initial residual = 0.00123222, Final residual = 0.000120843, No Iterations 5
GAMG:  Solving for p, Initial residual = 0.000520503, Final residual = 2.04093e-05, No Iterations 3
time step continuity errors : sum local = 5.0961e-05, global = 2.37893e-06, cumulative = 0.00572511
smoothSolver:  Solving for omega, Initial residual = 8.72894e-06, Final residual = 2.88544e-07, No Iterations 2
smoothSolver:  Solving for k, Initial residual = 0.000922872, Final residual = 7.1897e-05, No Iterations 5
ExecutionTime = 0.66 s  ClockTime = 0 s

scalarTransport execute: age
smoothSolver:  Solving for age, Initial residual = 0.00120843, Final residual = 0.000107905, No Iterations 6

Time = 53

smoothSolver:  Solving for Ux, Initial residual = 0.00158788, Final residual = 0.000138009, No Iterations 5
smoothSolver:  Solving for Uy, Initial residual = 0.00158388, Final residual = 0.000112524, No Iterations 5
GAMG:  Solving for p, Initial residual = 0.000534111, Final residual = 1.8389e-05, No Iterations 3
time step continuity errors : sum local = 4.59088e-05, global = 3.5145e-06, cumulative = 0.00572862
smoothSolver:  Solving for omega, Initial residual = 8.50099e-06, Final residual = 3.23876e-07, No Iterations 2
smoothSolver:  Solving for k, Initial residual = 0.000790454, Final residual = 6.49906e-05, No Iterations 5
ExecutionTime = 0.67 s  ClockTime = 0 s

scalarTransport execute: age
smoothSolver:  Solving for age, Initial residual = 0.00109527, Final residual = 9.47654e-05, No Iterations 7

Time = 54

smoothSolver:  Solving for Ux, Initial residual = 0.00143261, Final residual = 0.000136356, No Iterations 5
smoothSolver:  Solving for Uy, Initial residual = 0.00114957, Final residual = 0.000106807, No Iterations 5
GAMG:  Solving for p, Initial residual = 0.000489213, Final residual = 1.58254e-05, No Iterations 3
time step continuity errors : sum local = 3.95093e-05, global = 3.681e-06, cumulative = 0.0057323
smoothSolver:  Solving for omega, Initial residual = 1.46265e-05, Final residual = 1.41366e-06, No Iterations 1
smoothSolver:  Solving for k, Initial residual = 0.000702456, Final residual = 5.86983e-05, No Iterations 5
ExecutionTime = 0.68 s  ClockTime = 0 s

scalarTransport execute: age
smoothSolver:  Solving for age, Initial residual = 0.00104838, Final residual = 9.3068e-05, No Iterations 7

Time = 55

smoothSolver:  Solving for Ux, Initial residual = 0.00167306, Final residual = 0.000130427, No Iterations 5
smoothSolver:  Solving for Uy, Initial residual = 0.00149487, Final residual = 0.000100946, No Iterations 5
GAMG:  Solving for p, Initial residual = 0.000538258, Final residual = 2.253e-05, No Iterations 3
time step continuity errors : sum local = 5.62372e-05, global = 3.32236e-06, cumulative = 0.00573563
smoothSolver:  Solving for omega, Initial residual = 1.32456e-05, Final residual = 3.83736e-07, No Iterations 2
smoothSolver:  Solving for k, Initial residual = 0.000657278, Final residual = 5.29624e-05, No Iterations 5
ExecutionTime = 0.69 s  ClockTime = 0 s

scalarTransport execute: age
smoothSolver:  Solving for age, Initial residual = 0.000980375, Final residual = 9.21598e-05, No Iterations 7

Time = 56

smoothSolver:  Solving for Ux, Initial residual = 0.0014316, Final residual = 0.000124409, No Iterations 5
smoothSolver:  Solving for Uy, Initial residual = 0.00142427, Final residual = 9.89876e-05, No Iterations 5
GAMG:  Solving for p, Initial residual = 0.000564988, Final residual = 2.14796e-05, No Iterations 3
time step continuity errors : sum local = 5.36162e-05, global = 4.12827e-06, cumulative = 0.00573976
smoothSolver:  Solving for omega, Initial residual = 1.18263e-05, Final residual = 3.70325e-07, No Iterations 2
smoothSolver:  Solving for k, Initial residual = 0.000626678, Final residual = 4.77459e-05, No Iterations 5
ExecutionTime = 0.7 s  ClockTime = 0 s

scalarTransport execute: age
smoothSolver:  Solving for age, Initial residual = 0.00100926, Final residual = 9.67552e-05, No Iterations 7

Time = 57

smoothSolver:  Solving for Ux, Initial residual = 0.00128837, Final residual = 0.00012307, No Iterations 5
smoothSolver:  Solving for Uy, Initial residual = 0.00109958, Final residual = 9.26128e-05, No Iterations 5
GAMG:  Solving for p, Initial residual = 0.000462025, Final residual = 4.44627e-05, No Iterations 2
time step continuity errors : sum local = 0.000110976, global = 4.47432e-06, cumulative = 0.00574423
smoothSolver:  Solving for omega, Initial residual = 8.56721e-06, Final residual = 3.48671e-07, No Iterations 2
smoothSolver:  Solving for k, Initial residual = 0.000534017, Final residual = 4.30014e-05, No Iterations 5
ExecutionTime = 0.71 s  ClockTime = 0 s

scalarTransport execute: age
smoothSolver:  Solving for age, Initial residual = 0.000983015, Final residual = 8.3517e-05, No Iterations 8

Time = 58

smoothSolver:  Solving for Ux, Initial residual = 0.00125593, Final residual = 0.000116149, No Iterations 5
smoothSolver:  Solving for Uy, Initial residual = 0.00104272, Final residual = 9.09199e-05, No Iterations 5
GAMG:  Solving for p, Initial residual = 0.000454895, Final residual = 1.50741e-05, No Iterations 3
time step continuity errors : sum local = 3.76171e-05, global = 4.83004e-06, cumulative = 0.00574906
smoothSolver:  Solving for omega, Initial residual = 8.77446e-06, Final residual = 3.42151e-07, No Iterations 2
smoothSolver:  Solving for k, Initial residual = 0.000505287, Final residual = 3.86955e-05, No Iterations 5
ExecutionTime = 0.72 s  ClockTime = 0 s

scalarTransport execute: age
smoothSolver:  Solving for age, Initial residual = 0.00101097, Final residual = 8.64718e-05, No Iterations 9

Time = 59

smoothSolver:  Solving for Ux, Initial residual = 0.00122114, Final residual = 0.000115121, No Iterations 5
smoothSolver:  Solving for Uy, Initial residual = 0.00134656, Final residual = 0.000124051, No Iterations 4
GAMG:  Solving for p, Initial residual = 0.000406102, Final residual = 3.53392e-05, No Iterations 2
time step continuity errors : sum local = 8.818e-05, global = 5.3395e-06, cumulative = 0.0057544
smoothSolver:  Solving for omega, Initial residual = 8.6317e-06, Final residual = 2.90448e-07, No Iterations 2
smoothSolver:  Solving for k, Initial residual = 0.000473108, Final residual = 3.47931e-05, No Iterations 5
ExecutionTime = 0.73 s  ClockTime = 0 s

scalarTransport execute: age
smoothSolver:  Solving for age, Initial residual = 0.00102703, Final residual = 9.49858e-05, No Iterations 9

Time = 60

smoothSolver:  Solving for Ux, Initial residual = 0.00273736, Final residual = 0.000238648, No Iterations 3
smoothSolver:  Solving for Uy, Initial residual = 0.00102174, Final residual = 8.17363e-05, No Iterations 5
GAMG:  Solving for p, Initial residual = 0.000483958, Final residual = 1.50186e-05, No Iterations 3
time step continuity errors : sum local = 3.74772e-05, global = 5.07866e-06, cumulative = 0.00575948
smoothSolver:  Solving for omega, Initial residual = 4.96974e-06, Final residual = 2.22635e-07, No Iterations 2
smoothSolver:  Solving for k, Initial residual = 0.000494288, Final residual = 4.91921e-05, No Iterations 4
ExecutionTime = 0.74 s  ClockTime = 1 s

scalarTransport execute: age
smoothSolver:  Solving for age, Initial residual = 0.000989952, Final residual = 9.57972e-05, No Iterations 8

Time = 61

smoothSolver:  Solving for Ux, Initial residual = 0.00133623, Final residual = 0.000105455, No Iterations 5
smoothSolver:  Solving for Uy, Initial residual = 0.000908814, Final residual = 7.47448e-05, No Iterations 5
GAMG:  Solving for p, Initial residual = 0.0004258, Final residual = 4.1051e-05, No Iterations 2
time step continuity errors : sum local = 0.000102439, global = 4.97828e-06, cumulative = 0.00576446
smoothSolver:  Solving for omega, Initial residual = 6.19437e-06, Final residual = 2.36301e-07, No Iterations 2
smoothSolver:  Solving for k, Initial residual = 0.000424575, Final residual = 2.82775e-05, No Iterations 5
ExecutionTime = 0.75 s  ClockTime = 1 s

scalarTransport execute: age
smoothSolver:  Solving for age, Initial residual = 0.000990774, Final residual = 8.57094e-05, No Iterations 8

Time = 62

smoothSolver:  Solving for Ux, Initial residual = 0.00157529, Final residual = 0.000152041, No Iterations 4
smoothSolver:  Solving for Uy, Initial residual = 0.00113918, Final residual = 0.000108573, No Iterations 4
GAMG:  Solving for p, Initial residual = 0.00051449, Final residual = 2.388e-05, No Iterations 3
time step continuity errors : sum local = 5.95893e-05, global = 4.00582e-06, cumulative = 0.00576846
smoothSolver:  Solving for omega, Initial residual = 1.16817e-05, Final residual = 9.57782e-07, No Iterations 1
smoothSolver:  Solving for k, Initial residual = 0.000430942, Final residual = 3.99436e-05, No Iterations 4
ExecutionTime = 0.77 s  ClockTime = 1 s

scalarTransport execute: age
smoothSolver:  Solving for age, Initial residual = 0.000991844, Final residual = 8.75526e-05, No Iterations 8

Time = 63

smoothSolver:  Solving for Ux, Initial residual = 0.00326046, Final residual = 0.000324961, No Iterations 2
smoothSolver:  Solving for Uy, Initial residual = 0.00113956, Final residual = 0.000111248, No Iterations 4
GAMG:  Solving for p, Initial residual = 0.000581943, Final residual = 1.77406e-05, No Iterations 3
time step continuity errors : sum local = 4.42716e-05, global = 4.66524e-06, cumulative = 0.00577313
smoothSolver:  Solving for omega, Initial residual = 6.61845e-06, Final residual = 2.48457e-07, No Iterations 2
smoothSolver:  Solving for k, Initial residual = 0.000460429, Final residual = 3.60953e-05, No Iterations 4
ExecutionTime = 0.78 s  ClockTime = 1 s

scalarTransport execute: age
smoothSolver:  Solving for age, Initial residual = 0.00103704, Final residual = 0.00010144, No Iterations 8

Time = 64

smoothSolver:  Solving for Ux, Initial residual = 0.00121517, Final residual = 9.9109e-05, No Iterations 5
smoothSolver:  Solving for Uy, Initial residual = 0.00118418, Final residual = 9.31478e-05, No Iterations 4
GAMG:  Solving for p, Initial residual = 0.000508728, Final residual = 2.01269e-05, No Iterations 3
time step continuity errors : sum local = 5.02158e-05, global = 4.17464e-06, cumulative = 0.0057773
smoothSolver:  Solving for omega, Initial residual = 6.76794e-06, Final residual = 2.30299e-07, No Iterations 2
smoothSolver:  Solving for k, Initial residual = 0.00040374, Final residual = 3.25962e-05, No Iterations 4
ExecutionTime = 0.79 s  ClockTime = 1 s

scalarTransport execute: age
smoothSolver:  Solving for age, Initial residual = 0.00102887, Final residual = 8.84326e-05, No Iterations 9

Time = 65

smoothSolver:  Solving for Ux, Initial residual = 0.0370247, Final residual = 6.98317e-05, No Iterations 1
smoothSolver:  Solving for Uy, Initial residual = 0.0502548, Final residual = 0.000366263, No Iterations 1
GAMG:  Solving for p, Initial residual = 0.000483568, Final residual = 1.82741e-05, No Iterations 3
time step continuity errors : sum local = 4.55923e-05, global = 3.53994e-06, cumulative = 0.00578084
smoothSolver:  Solving for omega, Initial residual = 9.33467e-06, Final residual = 2.67256e-07, No Iterations 2
smoothSolver:  Solving for k, Initial residual = 0.000454421, Final residual = 2.9419e-05, No Iterations 4
ExecutionTime = 0.8 s  ClockTime = 1 s

scalarTransport execute: age
smoothSolver:  Solving for age, Initial residual = 0.00104666, Final residual = 9.93464e-05, No Iterations 8

Time = 66

smoothSolver:  Solving for Ux, Initial residual = 0.0012181, Final residual = 8.74358e-05, No Iterations 5
smoothSolver:  Solving for Uy, Initial residual = 0.0010873, Final residual = 9.93121e-05, No Iterations 4
GAMG:  Solving for p, Initial residual = 0.000547459, Final residual = 5.40746e-05, No Iterations 2
time step continuity errors : sum local = 0.000134911, global = 3.81804e-06, cumulative = 0.00578466
smoothSolver:  Solving for omega, Initial residual = 7.10947e-06, Final residual = 2.75027e-07, No Iterations 2
smoothSolver:  Solving for k, Initial residual = 0.000396983, Final residual = 2.65424e-05, No Iterations 4
ExecutionTime = 0.82 s  ClockTime = 1 s

scalarTransport execute: age
smoothSolver:  Solving for age, Initial residual = 0.000982356, Final residual = 9.38297e-05, No Iterations 8

Time = 67

smoothSolver:  Solving for Ux, Initial residual = 0.00478495, Final residual = 0.000442761, No Iterations 1
smoothSolver:  Solving for Uy, Initial residual = 0.00121454, Final residual = 9.75806e-05, No Iterations 4
GAMG:  Solving for p, Initial residual = 0.000557398, Final residual = 1.31283e-05, No Iterations 3
time step continuity errors : sum local = 3.27523e-05, global = 5.26916e-06, cumulative = 0.00578993
smoothSolver:  Solving for omega, Initial residual = 7.11296e-06, Final residual = 2.56117e-07, No Iterations 2
smoothSolver:  Solving for k, Initial residual = 0.000378978, Final residual = 3.77369e-05, No Iterations 3
ExecutionTime = 0.83 s  ClockTime = 1 s

scalarTransport execute: age
smoothSolver:  Solving for age, Initial residual = 0.000947461, Final residual = 9.01488e-05, No Iterations 8

Time = 68

smoothSolver:  Solving for Ux, Initial residual = 0.00112824, Final residual = 9.15478e-05, No Iterations 5
smoothSolver:  Solving for Uy, Initial residual = 0.00119863, Final residual = 0.000112542, No Iterations 3
GAMG:  Solving for p, Initial residual = 0.000617407, Final residual = 2.05176e-05, No Iterations 3
time step continuity errors : sum local = 5.11824e-05, global = 3.38404e-06, cumulative = 0.00579331
smoothSolver:  Solving for omega, Initial residual = 6.15944e-06, Final residual = 2.264e-07, No Iterations 2
smoothSolver:  Solving for k, Initial residual = 0.000361055, Final residual = 3.44259e-05, No Iterations 3
ExecutionTime = 0.84 s  ClockTime = 1 s

scalarTransport execute: age
smoothSolver:  Solving for age, Initial residual = 0.000962467, Final residual = 9.11429e-05, No Iterations 8

Time = 69

smoothSolver:  Solving for Ux, Initial residual = 0.00138503, Final residual = 0.000118132, No Iterations 4
smoothSolver:  Solving for Uy, Initial residual = 0.000957796, Final residual = 9.45752e-05, No Iterations 4
GAMG:  Solving for p, Initial residual = 0.000529614, Final residual = 5.2716e-05, No Iterations 2
time step continuity errors : sum local = 0.000131487, global = 3.13125e-06, cumulative = 0.00579644
smoothSolver:  Solving for omega, Initial residual = 1.01658e-05, Final residual = 2.88934e-07, No Iterations 2
smoothSolver:  Solving for k, Initial residual = 0.000283976, Final residual = 1.9905e-05, No Iterations 4
ExecutionTime = 0.85 s  ClockTime = 1 s

scalarTransport execute: age
smoothSolver:  Solving for age, Initial residual = 0.000903843, Final residual = 8.99804e-05, No Iterations 8

Time = 70

smoothSolver:  Solving for Ux, Initial residual = 0.00101255, Final residual = 7.80539e-05, No Iterations 5
smoothSolver:  Solving for Uy, Initial residual = 0.000790913, Final residual = 5.50793e-05, No Iterations 5
GAMG:  Solving for p, Initial residual = 0.000419461, Final residual = 3.85714e-05, No Iterations 2
time step continuity errors : sum local = 9.61907e-05, global = 3.52171e-06, cumulative = 0.00579997
smoothSolver:  Solving for omega, Initial residual = 9.87406e-06, Final residual = 2.74131e-07, No Iterations 2
smoothSolver:  Solving for k, Initial residual = 0.000236083, Final residual = 1.79213e-05, No Iterations 4
ExecutionTime = 0.86 s  ClockTime = 1 s

scalarTransport execute: age
smoothSolver:  Solving for age, Initial residual = 0.000814607, Final residual = 7.49134e-05, No Iterations 8

Time = 71

smoothSolver:  Solving for Ux, Initial residual = 0.00134357, Final residual = 0.000110754, No Iterations 4
smoothSolver:  Solving for Uy, Initial residual = 0.00130068, Final residual = 0.000128773, No Iterations 3
GAMG:  Solving for p, Initial residual = 0.000534835, Final residual = 5.23815e-05, No Iterations 2
time step continuity errors : sum local = 0.000130631, global = 3.34148e-06, cumulative = 0.00580331
smoothSolver:  Solving for omega, Initial residual = 6.10273e-06, Final residual = 2.37838e-07, No Iterations 2
smoothSolver:  Solving for k, Initial residual = 0.000297061, Final residual = 2.54484e-05, No Iterations 3
ExecutionTime = 0.87 s  ClockTime = 1 s

scalarTransport execute: age
smoothSolver:  Solving for age, Initial residual = 0.000876602, Final residual = 8.43872e-05, No Iterations 8

Time = 72

smoothSolver:  Solving for Ux, Initial residual = 0.00135802, Final residual = 9.88721e-05, No Iterations 4
smoothSolver:  Solving for Uy, Initial residual = 0.00543856, Final residual = 0.000324945, No Iterations 1
GAMG:  Solving for p, Initial residual = 0.000579696, Final residual = 2.05098e-05, No Iterations 3
time step continuity errors : sum local = 5.11487e-05, global = 2.91008e-06, cumulative = 0.00580622
smoothSolver:  Solving for omega, Initial residual = 6.74674e-06, Final residual = 2.27532e-07, No Iterations 2
smoothSolver:  Solving for k, Initial residual = 0.000399402, Final residual = 3.6685e-05, No Iterations 2
ExecutionTime = 0.88 s  ClockTime = 1 s

scalarTransport execute: age
smoothSolver:  Solving for age, Initial residual = 0.000953649, Final residual = 9.49372e-05, No Iterations 8

Time = 73

smoothSolver:  Solving for Ux, Initial residual = 0.00122935, Final residual = 9.22359e-05, No Iterations 4
smoothSolver:  Solving for Uy, Initial residual = 0.000938381, Final residual = 9.37167e-05, No Iterations 4
GAMG:  Solving for p, Initial residual = 0.000430487, Final residual = 1.80958e-05, No Iterations 3
time step continuity errors : sum local = 4.51188e-05, global = 3.24136e-06, cumulative = 0.00580946
smoothSolver:  Solving for omega, Initial residual = 5.87252e-06, Final residual = 1.85212e-07, No Iterations 2
smoothSolver:  Solving for k, Initial residual = 0.000313125, Final residual = 2.15284e-05, No Iterations 3
ExecutionTime = 0.89 s  ClockTime = 1 s

scalarTransport execute: age
smoothSolver:  Solving for age, Initial residual = 0.000875605, Final residual = 8.0703e-05, No Iterations 8

Time = 74

smoothSolver:  Solving for Ux, Initial residual = 0.00291715, Final residual = 0.000214007, No Iterations 2
smoothSolver:  Solving for Uy, Initial residual = 0.000768562, Final residual = 5.42752e-05, No Iterations 5
GAMG:  Solving for p, Initial residual = 0.000473395, Final residual = 1.54946e-05, No Iterations 3
time step continuity errors : sum local = 3.8632e-05, global = 5.23628e-06, cumulative = 0.0058147
smoothSolver:  Solving for omega, Initial residual = 6.08969e-06, Final residual = 2.21073e-07, No Iterations 2
smoothSolver:  Solving for k, Initial residual = 0.000258563, Final residual = 1.96065e-05, No Iterations 3
ExecutionTime = 0.9 s  ClockTime = 1 s

scalarTransport execute: age
smoothSolver:  Solving for age, Initial residual = 0.000782326, Final residual = 7.25089e-05, No Iterations 8

Time = 75

smoothSolver:  Solving for Ux, Initial residual = 0.000862382, Final residual = 6.81683e-05, No Iterations 5
smoothSolver:  Solving for Uy, Initial residual = 0.000574038, Final residual = 3.98904e-05, No Iterations 5
GAMG:  Solving for p, Initial residual = 0.000381291, Final residual = 1.2209e-05, No Iterations 3
time step continuity errors : sum local = 3.04392e-05, global = 4.35404e-06, cumulative = 0.00581905
smoothSolver:  Solving for omega, Initial residual = 5.09811e-06, Final residual = 2.02992e-07, No Iterations 2
smoothSolver:  Solving for k, Initial residual = 0.000218044, Final residual = 1.78385e-05, No Iterations 3
ExecutionTime = 0.92 s  ClockTime = 1 s

scalarTransport execute: age
smoothSolver:  Solving for age, Initial residual = 0.000766249, Final residual = 6.89858e-05, No Iterations 8

Time = 76

smoothSolver:  Solving for Ux, Initial residual = 0.000838675, Final residual = 6.12275e-05, No Iterations 5
smoothSolver:  Solving for Uy, Initial residual = 0.00072264, Final residual = 6.44143e-05, No Iterations 4
GAMG:  Solving for p, Initial residual = 0.000381011, Final residual = 3.56121e-05, No Iterations 2
time step continuity errors : sum local = 8.87748e-05, global = 3.96603e-06, cumulative = 0.00582302
smoothSolver:  Solving for omega, Initial residual = 4.09107e-06, Final residual = 1.80044e-07, No Iterations 2
smoothSolver:  Solving for k, Initial residual = 0.000192962, Final residual = 1.62288e-05, No Iterations 3
ExecutionTime = 0.93 s  ClockTime = 1 s

scalarTransport execute: age
smoothSolver:  Solving for age, Initial residual = 0.000713292, Final residual = 7.08198e-05, No Iterations 8

Time = 77

smoothSolver:  Solving for Ux, Initial residual = 0.000933587, Final residual = 9.0803e-05, No Iterations 4
smoothSolver:  Solving for Uy, Initial residual = 0.000601298, Final residual = 4.09688e-05, No Iterations 5
GAMG:  Solving for p, Initial residual = 0.000348231, Final residual = 1.49051e-05, No Iterations 3
time step continuity errors : sum local = 3.71566e-05, global = 2.77775e-06, cumulative = 0.00582579
smoothSolver:  Solving for omega, Initial residual = 6.96634e-06, Final residual = 2.21156e-07, No Iterations 2
smoothSolver:  Solving for k, Initial residual = 0.000176872, Final residual = 1.47588e-05, No Iterations 3
ExecutionTime = 0.94 s  ClockTime = 1 s

scalarTransport execute: age
smoothSolver:  Solving for age, Initial residual = 0.000680318, Final residual = 5.83014e-05, No Iterations 9

Time = 78

smoothSolver:  Solving for Ux, Initial residual = 0.000676491, Final residual = 5.50895e-05, No Iterations 5
smoothSolver:  Solving for Uy, Initial residual = 0.00118118, Final residual = 9.84028e-05, No Iterations 3
GAMG:  Solving for p, Initial residual = 0.000472057, Final residual = 1.92165e-05, No Iterations 3
time step continuity errors : sum local = 4.7902e-05, global = 2.53766e-06, cumulative = 0.00582833
smoothSolver:  Solving for omega, Initial residual = 6.57496e-06, Final residual = 2.05203e-07, No Iterations 2
smoothSolver:  Solving for k, Initial residual = 0.000205635, Final residual = 1.34222e-05, No Iterations 3
ExecutionTime = 0.95 s  ClockTime = 1 s

scalarTransport execute: age
smoothSolver:  Solving for age, Initial residual = 0.000764411, Final residual = 6.75725e-05, No Iterations 9

Time = 79

smoothSolver:  Solving for Ux, Initial residual = 0.0037673, Final residual = 0.000310577, No Iterations 1
smoothSolver:  Solving for Uy, Initial residual = 0.00102032, Final residual = 9.7451e-05, No Iterations 3
GAMG:  Solving for p, Initial residual = 0.000582454, Final residual = 1.92356e-05, No Iterations 3
time step continuity errors : sum local = 4.79536e-05, global = 2.71721e-06, cumulative = 0.00583105
smoothSolver:  Solving for omega, Initial residual = 6.75108e-06, Final residual = 2.1e-07, No Iterations 2
smoothSolver:  Solving for k, Initial residual = 0.000293168, Final residual = 1.93571e-05, No Iterations 2
ExecutionTime = 0.96 s  ClockTime = 1 s

scalarTransport execute: age
smoothSolver:  Solving for age, Initial residual = 0.000877039, Final residual = 7.70704e-05, No Iterations 9

Time = 80

smoothSolver:  Solving for Ux, Initial residual = 0.0013138, Final residual = 0.000120868, No Iterations 3
smoothSolver:  Solving for Uy, Initial residual = 0.00283773, Final residual = 0.00022058, No Iterations 1
GAMG:  Solving for p, Initial residual = 0.000493141, Final residual = 1.82251e-05, No Iterations 3
time step continuity errors : sum local = 4.54384e-05, global = 2.20667e-06, cumulative = 0.00583325
smoothSolver:  Solving for omega, Initial residual = 4.63342e-06, Final residual = 1.61158e-07, No Iterations 2
smoothSolver:  Solving for k, Initial residual = 0.000330509, Final residual = 2.99784e-05, No Iterations 1
ExecutionTime = 0.98 s  ClockTime = 1 s

scalarTransport execute: age
smoothSolver:  Solving for age, Initial residual = 0.000789221, Final residual = 6.5544e-05, No Iterations 9

Time = 81

smoothSolver:  Solving for Ux, Initial residual = 0.00188152, Final residual = 0.000173705, No Iterations 2
smoothSolver:  Solving for Uy, Initial residual = 0.000759205, Final residual = 5.71331e-05, No Iterations 4
GAMG:  Solving for p, Initial residual = 0.000351892, Final residual = 1.14948e-05, No Iterations 3
time step continuity errors : sum local = 2.86529e-05, global = 2.65116e-06, cumulative = 0.00583591
smoothSolver:  Solving for omega, Initial residual = 4.02462e-06, Final residual = 1.40244e-07, No Iterations 2
smoothSolver:  Solving for k, Initial residual = 0.000240051, Final residual = 1.71105e-05, No Iterations 2
ExecutionTime = 0.99 s  ClockTime = 1 s

scalarTransport execute: age
smoothSolver:  Solving for age, Initial residual = 0.000713422, Final residual = 7.01632e-05, No Iterations 8

Time = 82

smoothSolver:  Solving for Ux, Initial residual = 0.00118158, Final residual = 0.000103072, No Iterations 3
smoothSolver:  Solving for Uy, Initial residual = 0.00723049, Final residual = 0.000198483, No Iterations 1
GAMG:  Solving for p, Initial residual = 0.000423877, Final residual = 1.47512e-05, No Iterations 3
time step continuity errors : sum local = 3.67681e-05, global = 2.40674e-06, cumulative = 0.00583831
smoothSolver:  Solving for omega, Initial residual = 7.46827e-06, Final residual = 7.43342e-07, No Iterations 1
smoothSolver:  Solving for k, Initial residual = 0.000291413, Final residual = 2.66445e-05, No Iterations 1
ExecutionTime = 1 s  ClockTime = 1 s

scalarTransport execute: age
smoothSolver:  Solving for age, Initial residual = 0.000738299, Final residual = 6.08893e-05, No Iterations 10

Time = 83

smoothSolver:  Solving for Ux, Initial residual = 0.00225608, Final residual = 0.000168895, No Iterations 2
smoothSolver:  Solving for Uy, Initial residual = 0.000847075, Final residual = 8.40075e-05, No Iterations 3
GAMG:  Solving for p, Initial residual = 0.000469173, Final residual = 4.6875e-05, No Iterations 2
time step continuity errors : sum local = 0.000116828, global = 2.34753e-06, cumulative = 0.00584066
smoothSolver:  Solving for omega, Initial residual = 4.3156e-06, Final residual = 1.59016e-07, No Iterations 2
smoothSolver:  Solving for k, Initial residual = 0.000342704, Final residual = 2.58549e-05, No Iterations 1
ExecutionTime = 1.02 s  ClockTime = 1 s

scalarTransport execute: age
smoothSolver:  Solving for age, Initial residual = 0.000811285, Final residual = 6.17864e-05, No Iterations 10

Time = 84

smoothSolver:  Solving for Ux, Initial residual = 0.000777803, Final residual = 6.96704e-05, No Iterations 4
smoothSolver:  Solving for Uy, Initial residual = 0.000614446, Final residual = 5.3947e-05, No Iterations 4
GAMG:  Solving for p, Initial residual = 0.000426893, Final residual = 1.53578e-05, No Iterations 3
time step continuity errors : sum local = 3.8278e-05, global = 2.53874e-06, cumulative = 0.0058432
smoothSolver:  Solving for omega, Initial residual = 4.96815e-06, Final residual = 4.96792e-07, No Iterations 1
smoothSolver:  Solving for k, Initial residual = 0.000215723, Final residual = 1.44946e-05, No Iterations 2
ExecutionTime = 1.03 s  ClockTime = 1 s

scalarTransport execute: age
smoothSolver:  Solving for age, Initial residual = 0.000769627, Final residual = 7.60926e-05, No Iterations 9

Time = 85

smoothSolver:  Solving for Ux, Initial residual = 0.00135896, Final residual = 9.28693e-05, No Iterations 3
smoothSolver:  Solving for Uy, Initial residual = 0.00460819, Final residual = 0.000197696, No Iterations 1
GAMG:  Solving for p, Initial residual = 0.000402641, Final residual = 3.47069e-05, No Iterations 2
time step continuity errors : sum local = 8.64877e-05, global = 2.44235e-06, cumulative = 0.00584564
smoothSolver:  Solving for omega, Initial residual = 4.58958e-06, Final residual = 1.55538e-07, No Iterations 2
smoothSolver:  Solving for k, Initial residual = 0.000339697, Final residual = 2.32775e-05, No Iterations 1
ExecutionTime = 1.06 s  ClockTime = 1 s

scalarTransport execute: age
smoothSolver:  Solving for age, Initial residual = 0.000780897, Final residual = 5.90242e-05, No Iterations 10

Time = 86

smoothSolver:  Solving for Ux, Initial residual = 0.000928225, Final residual = 6.08729e-05, No Iterations 4
smoothSolver:  Solving for Uy, Initial residual = 0.000955535, Final residual = 7.38843e-05, No Iterations 3
GAMG:  Solving for p, Initial residual = 0.000424757, Final residual = 1.50555e-05, No Iterations 3
time step continuity errors : sum local = 3.75158e-05, global = 1.48716e-06, cumulative = 0.00584713
smoothSolver:  Solving for omega, Initial residual = 2.8948e-06, Final residual = 1.11708e-07, No Iterations 2
smoothSolver:  Solving for k, Initial residual = 0.000337549, Final residual = 2.20633e-05, No Iterations 1
ExecutionTime = 1.08 s  ClockTime = 1 s

scalarTransport execute: age
smoothSolver:  Solving for age, Initial residual = 0.000819074, Final residual = 6.23011e-05, No Iterations 10

Time = 87

smoothSolver:  Solving for Ux, Initial residual = 0.00140259, Final residual = 0.000135199, No Iterations 2
smoothSolver:  Solving for Uy, Initial residual = 0.000807372, Final residual = 7.68314e-05, No Iterations 3
GAMG:  Solving for p, Initial residual = 0.000450653, Final residual = 1.59654e-05, No Iterations 3
time step continuity errors : sum local = 3.97879e-05, global = 2.62988e-06, cumulative = 0.00584976
smoothSolver:  Solving for omega, Initial residual = 3.79927e-06, Final residual = 1.1448e-07, No Iterations 2
smoothSolver:  Solving for k, Initial residual = 0.000242358, Final residual = 2.04731e-05, No Iterations 1
ExecutionTime = 1.09 s  ClockTime = 1 s

scalarTransport execute: age
smoothSolver:  Solving for age, Initial residual = 0.000754869, Final residual = 6.22664e-05, No Iterations 9

Time = 88

smoothSolver:  Solving for Ux, Initial residual = 0.001197, Final residual = 0.000109574, No Iterations 2
smoothSolver:  Solving for Uy, Initial residual = 0.0101981, Final residual = 0.000195943, No Iterations 1
GAMG:  Solving for p, Initial residual = 0.000391027, Final residual = 3.14685e-05, No Iterations 2
time step continuity errors : sum local = 7.84173e-05, global = 2.6578e-06, cumulative = 0.00585242
smoothSolver:  Solving for omega, Initial residual = 3.82717e-06, Final residual = 1.09772e-07, No Iterations 2
smoothSolver:  Solving for k, Initial residual = 0.000481034, Final residual = 2.14172e-05, No Iterations 1
ExecutionTime = 1.1 s  ClockTime = 1 s

scalarTransport execute: age
smoothSolver:  Solving for age, Initial residual = 0.000719555, Final residual = 5.48289e-05, No Iterations 10

Time = 89

smoothSolver:  Solving for Ux, Initial residual = 0.000851452, Final residual = 5.7465e-05, No Iterations 4
smoothSolver:  Solving for Uy, Initial residual = 0.000582364, Final residual = 4.2285e-05, No Iterations 4
GAMG:  Solving for p, Initial residual = 0.000432223, Final residual = 1.94845e-05, No Iterations 3
time step continuity errors : sum local = 4.85508e-05, global = 2.81422e-06, cumulative = 0.00585523
smoothSolver:  Solving for omega, Initial residual = 4.88466e-06, Final residual = 4.69002e-07, No Iterations 1
smoothSolver:  Solving for k, Initial residual = 0.000388342, Final residual = 2.00139e-05, No Iterations 1
ExecutionTime = 1.11 s  ClockTime = 1 s

scalarTransport execute: age
smoothSolver:  Solving for age, Initial residual = 0.000802365, Final residual = 5.70346e-05, No Iterations 10

Time = 90

smoothSolver:  Solving for Ux, Initial residual = 0.000642494, Final residual = 5.3616e-05, No Iterations 4
smoothSolver:  Solving for Uy, Initial residual = 0.000487553, Final residual = 4.40254e-05, No Iterations 4
GAMG:  Solving for p, Initial residual = 0.00035909, Final residual = 1.31969e-05, No Iterations 3
time step continuity errors : sum local = 3.28798e-05, global = 2.97117e-06, cumulative = 0.0058582
smoothSolver:  Solving for omega, Initial residual = 4.84e-06, Final residual = 4.68111e-07, No Iterations 1
smoothSolver:  Solving for k, Initial residual = 0.000154529, Final residual = 1.06617e-05, No Iterations 2
ExecutionTime = 1.12 s  ClockTime = 1 s

scalarTransport execute: age
smoothSolver:  Solving for age, Initial residual = 0.000651006, Final residual = 5.32117e-05, No Iterations 9

Time = 91

smoothSolver:  Solving for Ux, Initial residual = 0.00052213, Final residual = 3.45968e-05, No Iterations 5
smoothSolver:  Solving for Uy, Initial residual = 0.000371276, Final residual = 2.45846e-05, No Iterations 5
GAMG:  Solving for p, Initial residual = 0.000271109, Final residual = 8.84262e-06, No Iterations 3
time step continuity errors : sum local = 2.20282e-05, global = 2.82416e-06, cumulative = 0.00586103
smoothSolver:  Solving for omega, Initial residual = 5.53534e-06, Final residual = 1.77514e-07, No Iterations 2
smoothSolver:  Solving for k, Initial residual = 0.000109488, Final residual = 9.85219e-06, No Iterations 2
ExecutionTime = 1.13 s  ClockTime = 1 s

scalarTransport execute: age
smoothSolver:  Solving for age, Initial residual = 0.000606321, Final residual = 4.71544e-05, No Iterations 9

Time = 92

smoothSolver:  Solving for Ux, Initial residual = 0.000829283, Final residual = 7.93289e-05, No Iterations 3
smoothSolver:  Solving for Uy, Initial residual = 0.000743274, Final residual = 5.92177e-05, No Iterations 3
GAMG:  Solving for p, Initial residual = 0.00051588, Final residual = 2.25631e-05, No Iterations 3
time step continuity errors : sum local = 5.62069e-05, global = 2.69727e-06, cumulative = 0.00586372
smoothSolver:  Solving for omega, Initial residual = 3.02511e-06, Final residual = 1.34903e-07, No Iterations 2
smoothSolver:  Solving for k, Initial residual = 0.000164728, Final residual = 1.52002e-05, No Iterations 1
ExecutionTime = 1.14 s  ClockTime = 1 s

scalarTransport execute: age
smoothSolver:  Solving for age, Initial residual = 0.000675555, Final residual = 5.48035e-05, No Iterations 9

Time = 93

smoothSolver:  Solving for Ux, Initial residual = 0.0147556, Final residual = 0.000147378, No Iterations 1
smoothSolver:  Solving for Uy, Initial residual = 0.00172291, Final residual = 0.000170178, No Iterations 1
GAMG:  Solving for p, Initial residual = 0.00046948, Final residual = 1.84109e-05, No Iterations 3
time step continuity errors : sum local = 4.58687e-05, global = 1.27393e-06, cumulative = 0.005865
smoothSolver:  Solving for omega, Initial residual = 4.08942e-06, Final residual = 1.23065e-07, No Iterations 2
smoothSolver:  Solving for k, Initial residual = 0.000309468, Final residual = 1.58387e-05, No Iterations 1
ExecutionTime = 1.15 s  ClockTime = 1 s

scalarTransport execute: age
smoothSolver:  Solving for age, Initial residual = 0.00076381, Final residual = 7.52256e-05, No Iterations 8

Time = 94

smoothSolver:  Solving for Ux, Initial residual = 0.000755641, Final residual = 6.97326e-05, No Iterations 3
smoothSolver:  Solving for Uy, Initial residual = 0.000664656, Final residual = 5.9376e-05, No Iterations 3
GAMG:  Solving for p, Initial residual = 0.000420427, Final residual = 1.51357e-05, No Iterations 3
time step continuity errors : sum local = 3.77115e-05, global = 1.80714e-06, cumulative = 0.0058668
smoothSolver:  Solving for omega, Initial residual = 5.47942e-06, Final residual = 5.42457e-07, No Iterations 1
smoothSolver:  Solving for k, Initial residual = 0.000240272, Final residual = 1.46035e-05, No Iterations 1
ExecutionTime = 1.16 s  ClockTime = 1 s

scalarTransport execute: age
smoothSolver:  Solving for age, Initial residual = 0.000738151, Final residual = 6.31738e-05, No Iterations 8

Time = 95

smoothSolver:  Solving for Ux, Initial residual = 0.00340852, Final residual = 0.000180102, No Iterations 1
smoothSolver:  Solving for Uy, Initial residual = 0.00179835, Final residual = 0.000161211, No Iterations 1
[...]

Time = 4977

smoothSolver:  Solving for Ux, Initial residual = 0.0362404, Final residual = 3.41515e-06, No Iterations 1
smoothSolver:  Solving for Uy, Initial residual = 0.0438975, Final residual = 5.39615e-05, No Iterations 1
GAMG:  Solving for p, Initial residual = 0.000331361, Final residual = 2.14075e-05, No Iterations 3
time step continuity errors : sum local = 5.3293e-05, global = -9.97844e-07, cumulative = 0.00573274
smoothSolver:  Solving for omega, Initial residual = 1.55011e-06, Final residual = 1.15885e-07, No Iterations 1
smoothSolver:  Solving for k, Initial residual = 0.000219036, Final residual = 1.2973e-06, No Iterations 1
ExecutionTime = 47.13 s  ClockTime = 47 s

scalarTransport execute: age
smoothSolver:  Solving for age, Initial residual = 0.000337745, Final residual = 2.78571e-05, No Iterations 8

Time = 4978

smoothSolver:  Solving for Ux, Initial residual = 0.00177457, Final residual = 5.73054e-05, No Iterations 1
smoothSolver:  Solving for Uy, Initial residual = 0.000415322, Final residual = 1.85262e-05, No Iterations 2
GAMG:  Solving for p, Initial residual = 0.0003147, Final residual = 1.38034e-05, No Iterations 3
time step continuity errors : sum local = 3.4362e-05, global = -8.09928e-07, cumulative = 0.00573193
smoothSolver:  Solving for omega, Initial residual = 1.57513e-06, Final residual = 1.20665e-07, No Iterations 1
smoothSolver:  Solving for k, Initial residual = 0.000172038, Final residual = 8.8075e-07, No Iterations 1
ExecutionTime = 47.14 s  ClockTime = 47 s

scalarTransport execute: age
smoothSolver:  Solving for age, Initial residual = 0.000291046, Final residual = 2.83404e-05, No Iterations 7

Time = 4979

smoothSolver:  Solving for Ux, Initial residual = 0.000544, Final residual = 2.44282e-05, No Iterations 2
smoothSolver:  Solving for Uy, Initial residual = 0.000344174, Final residual = 2.23731e-05, No Iterations 2
GAMG:  Solving for p, Initial residual = 0.000327391, Final residual = 1.69551e-05, No Iterations 3
time step continuity errors : sum local = 4.22081e-05, global = -7.34335e-07, cumulative = 0.00573119
smoothSolver:  Solving for omega, Initial residual = 1.67414e-06, Final residual = 1.27797e-07, No Iterations 1
smoothSolver:  Solving for k, Initial residual = 0.000138591, Final residual = 6.99352e-07, No Iterations 1
ExecutionTime = 47.15 s  ClockTime = 47 s

scalarTransport execute: age
smoothSolver:  Solving for age, Initial residual = 0.000308168, Final residual = 2.38942e-05, No Iterations 8

Time = 4980

smoothSolver:  Solving for Ux, Initial residual = 0.000616775, Final residual = 2.61531e-05, No Iterations 2
smoothSolver:  Solving for Uy, Initial residual = 0.000637337, Final residual = 2.70319e-05, No Iterations 2
GAMG:  Solving for p, Initial residual = 0.000377635, Final residual = 1.19078e-05, No Iterations 3
time step continuity errors : sum local = 2.96412e-05, global = -1.94255e-06, cumulative = 0.00572925
smoothSolver:  Solving for omega, Initial residual = 1.38097e-06, Final residual = 1.06461e-07, No Iterations 1
smoothSolver:  Solving for k, Initial residual = 0.000142554, Final residual = 8.52407e-07, No Iterations 1
ExecutionTime = 47.16 s  ClockTime = 47 s

scalarTransport execute: age
smoothSolver:  Solving for age, Initial residual = 0.000375516, Final residual = 3.41066e-05, No Iterations 7

Time = 4981

smoothSolver:  Solving for Ux, Initial residual = 0.000408637, Final residual = 2.75998e-05, No Iterations 2
smoothSolver:  Solving for Uy, Initial residual = 0.000359573, Final residual = 2.94721e-05, No Iterations 2
GAMG:  Solving for p, Initial residual = 0.000349202, Final residual = 1.34832e-05, No Iterations 3
time step continuity errors : sum local = 3.35641e-05, global = -1.39034e-06, cumulative = 0.00572786
smoothSolver:  Solving for omega, Initial residual = 1.27006e-06, Final residual = 9.70935e-08, No Iterations 1
smoothSolver:  Solving for k, Initial residual = 0.000113045, Final residual = 6.66993e-07, No Iterations 1
ExecutionTime = 47.16 s  ClockTime = 47 s

scalarTransport execute: age
smoothSolver:  Solving for age, Initial residual = 0.000374351, Final residual = 2.90357e-05, No Iterations 7

Time = 4982

smoothSolver:  Solving for Ux, Initial residual = 0.00418475, Final residual = 3.3433e-05, No Iterations 1
smoothSolver:  Solving for Uy, Initial residual = 0.0180583, Final residual = 6.71986e-05, No Iterations 1
GAMG:  Solving for p, Initial residual = 0.000397956, Final residual = 1.38552e-05, No Iterations 3
time step continuity errors : sum local = 3.44894e-05, global = -1.00228e-06, cumulative = 0.00572686
smoothSolver:  Solving for omega, Initial residual = 2.06313e-06, Final residual = 1.39864e-07, No Iterations 1
smoothSolver:  Solving for k, Initial residual = 0.000477927, Final residual = 2.171e-06, No Iterations 1
ExecutionTime = 47.17 s  ClockTime = 47 s

scalarTransport execute: age
smoothSolver:  Solving for age, Initial residual = 0.000479971, Final residual = 4.31025e-05, No Iterations 7

Time = 4983

smoothSolver:  Solving for Ux, Initial residual = 0.00171198, Final residual = 6.5129e-05, No Iterations 1
smoothSolver:  Solving for Uy, Initial residual = 0.0116771, Final residual = 7.434e-05, No Iterations 1
GAMG:  Solving for p, Initial residual = 0.000425873, Final residual = 3.95227e-05, No Iterations 2
time step continuity errors : sum local = 9.84014e-05, global = -7.36972e-07, cumulative = 0.00572612
smoothSolver:  Solving for omega, Initial residual = 2.69494e-06, Final residual = 2.02047e-07, No Iterations 1
smoothSolver:  Solving for k, Initial residual = 0.000502933, Final residual = 1.71972e-06, No Iterations 1
ExecutionTime = 47.18 s  ClockTime = 47 s

scalarTransport execute: age
smoothSolver:  Solving for age, Initial residual = 0.000493009, Final residual = 4.50556e-05, No Iterations 7

Time = 4984

smoothSolver:  Solving for Ux, Initial residual = 0.000454891, Final residual = 2.40421e-05, No Iterations 2
smoothSolver:  Solving for Uy, Initial residual = 0.000470047, Final residual = 1.94901e-05, No Iterations 2
GAMG:  Solving for p, Initial residual = 0.000357697, Final residual = 3.2972e-05, No Iterations 2
time step continuity errors : sum local = 8.20876e-05, global = -2.66677e-07, cumulative = 0.00572585
smoothSolver:  Solving for omega, Initial residual = 2.41151e-06, Final residual = 1.76033e-07, No Iterations 1
smoothSolver:  Solving for k, Initial residual = 0.00023145, Final residual = 9.20832e-07, No Iterations 1
ExecutionTime = 47.19 s  ClockTime = 47 s

scalarTransport execute: age
smoothSolver:  Solving for age, Initial residual = 0.000369733, Final residual = 2.86049e-05, No Iterations 8

Time = 4985

smoothSolver:  Solving for Ux, Initial residual = 0.000370608, Final residual = 1.91233e-05, No Iterations 2
smoothSolver:  Solving for Uy, Initial residual = 0.000371452, Final residual = 2.29246e-05, No Iterations 2
GAMG:  Solving for p, Initial residual = 0.00036614, Final residual = 3.51917e-05, No Iterations 2
time step continuity errors : sum local = 8.7609e-05, global = -9.15294e-08, cumulative = 0.00572576
smoothSolver:  Solving for omega, Initial residual = 2.10997e-06, Final residual = 1.60243e-07, No Iterations 1
smoothSolver:  Solving for k, Initial residual = 0.000138418, Final residual = 6.7534e-07, No Iterations 1
ExecutionTime = 47.2 s  ClockTime = 47 s

scalarTransport execute: age
smoothSolver:  Solving for age, Initial residual = 0.00037571, Final residual = 2.85258e-05, No Iterations 8

Time = 4986

smoothSolver:  Solving for Ux, Initial residual = 0.000330364, Final residual = 2.3358e-05, No Iterations 2
smoothSolver:  Solving for Uy, Initial residual = 0.00035748, Final residual = 2.28788e-05, No Iterations 2
GAMG:  Solving for p, Initial residual = 0.000327832, Final residual = 2.95946e-05, No Iterations 2
time step continuity errors : sum local = 7.36642e-05, global = 3.36248e-07, cumulative = 0.0057261
smoothSolver:  Solving for omega, Initial residual = 1.65852e-06, Final residual = 1.2003e-07, No Iterations 1
smoothSolver:  Solving for k, Initial residual = 9.13512e-05, Final residual = 4.09196e-07, No Iterations 1
ExecutionTime = 47.21 s  ClockTime = 47 s

scalarTransport execute: age
smoothSolver:  Solving for age, Initial residual = 0.000373045, Final residual = 3.21279e-05, No Iterations 8

Time = 4987

smoothSolver:  Solving for Ux, Initial residual = 0.00053788, Final residual = 4.87218e-05, No Iterations 1
smoothSolver:  Solving for Uy, Initial residual = 0.000276254, Final residual = 1.7002e-05, No Iterations 2
GAMG:  Solving for p, Initial residual = 0.000285323, Final residual = 1.37361e-05, No Iterations 3
time step continuity errors : sum local = 3.41894e-05, global = 1.63353e-07, cumulative = 0.00572626
smoothSolver:  Solving for omega, Initial residual = 1.36678e-06, Final residual = 1.13309e-07, No Iterations 1
smoothSolver:  Solving for k, Initial residual = 8.83412e-05, Final residual = 5.60271e-07, No Iterations 1
ExecutionTime = 47.22 s  ClockTime = 47 s

scalarTransport execute: age
smoothSolver:  Solving for age, Initial residual = 0.000359662, Final residual = 2.74866e-05, No Iterations 8

Time = 4988

smoothSolver:  Solving for Ux, Initial residual = 0.0108518, Final residual = 4.52401e-05, No Iterations 1
smoothSolver:  Solving for Uy, Initial residual = 0.000917137, Final residual = 6.24148e-05, No Iterations 1
GAMG:  Solving for p, Initial residual = 0.000336218, Final residual = 1.54049e-05, No Iterations 3
time step continuity errors : sum local = 3.83437e-05, global = -1.36213e-07, cumulative = 0.00572612
smoothSolver:  Solving for omega, Initial residual = 1.42466e-06, Final residual = 1.20613e-07, No Iterations 1
smoothSolver:  Solving for k, Initial residual = 0.000156339, Final residual = 8.36492e-07, No Iterations 1
ExecutionTime = 47.23 s  ClockTime = 47 s

scalarTransport execute: age
smoothSolver:  Solving for age, Initial residual = 0.000361072, Final residual = 3.44476e-05, No Iterations 7

Time = 4989

smoothSolver:  Solving for Ux, Initial residual = 0.00215848, Final residual = 6.3476e-05, No Iterations 1
smoothSolver:  Solving for Uy, Initial residual = 0.000436512, Final residual = 2.37393e-05, No Iterations 2
GAMG:  Solving for p, Initial residual = 0.000349208, Final residual = 1.81297e-05, No Iterations 3
time step continuity errors : sum local = 4.51271e-05, global = 7.13573e-09, cumulative = 0.00572613
smoothSolver:  Solving for omega, Initial residual = 1.90718e-06, Final residual = 1.3645e-07, No Iterations 1
smoothSolver:  Solving for k, Initial residual = 0.000189496, Final residual = 1.32745e-06, No Iterations 1
ExecutionTime = 47.24 s  ClockTime = 47 s

scalarTransport execute: age
smoothSolver:  Solving for age, Initial residual = 0.000423109, Final residual = 3.92339e-05, No Iterations 8

Time = 4990

smoothSolver:  Solving for Ux, Initial residual = 0.00173419, Final residual = 6.277e-05, No Iterations 1
smoothSolver:  Solving for Uy, Initial residual = 0.00779107, Final residual = 6.48375e-05, No Iterations 1
GAMG:  Solving for p, Initial residual = 0.000447428, Final residual = 1.90534e-05, No Iterations 3
time step continuity errors : sum local = 4.74319e-05, global = 1.71198e-07, cumulative = 0.0057263
smoothSolver:  Solving for omega, Initial residual = 2.8482e-06, Final residual = 1.88976e-07, No Iterations 1
smoothSolver:  Solving for k, Initial residual = 0.000370484, Final residual = 1.43003e-06, No Iterations 1
ExecutionTime = 47.25 s  ClockTime = 47 s

scalarTransport execute: age
smoothSolver:  Solving for age, Initial residual = 0.00041743, Final residual = 3.45811e-05, No Iterations 9

Time = 4991

smoothSolver:  Solving for Ux, Initial residual = 0.000879314, Final residual = 8.61083e-05, No Iterations 1
smoothSolver:  Solving for Uy, Initial residual = 0.000594071, Final residual = 3.5004e-05, No Iterations 2
GAMG:  Solving for p, Initial residual = 0.000444199, Final residual = 1.59014e-05, No Iterations 3
time step continuity errors : sum local = 3.95863e-05, global = 9.71683e-08, cumulative = 0.0057264
smoothSolver:  Solving for omega, Initial residual = 3.5858e-06, Final residual = 2.48314e-07, No Iterations 1
smoothSolver:  Solving for k, Initial residual = 0.000289759, Final residual = 1.05473e-06, No Iterations 1
ExecutionTime = 47.25 s  ClockTime = 47 s

scalarTransport execute: age
smoothSolver:  Solving for age, Initial residual = 0.00043613, Final residual = 4.07072e-05, No Iterations 7

Time = 4992

smoothSolver:  Solving for Ux, Initial residual = 0.00245614, Final residual = 2.17401e-05, No Iterations 1
smoothSolver:  Solving for Uy, Initial residual = 0.103929, Final residual = 6.2568e-05, No Iterations 1
GAMG:  Solving for p, Initial residual = 0.000499205, Final residual = 2.32332e-05, No Iterations 3
time step continuity errors : sum local = 5.78442e-05, global = 5.82857e-08, cumulative = 0.00572646
smoothSolver:  Solving for omega, Initial residual = 2.94135e-06, Final residual = 2.0036e-07, No Iterations 1
smoothSolver:  Solving for k, Initial residual = 0.000562333, Final residual = 1.90069e-06, No Iterations 1
ExecutionTime = 47.26 s  ClockTime = 47 s

scalarTransport execute: age
smoothSolver:  Solving for age, Initial residual = 0.000495344, Final residual = 4.67182e-05, No Iterations 8

Time = 4993

smoothSolver:  Solving for Ux, Initial residual = 0.00100789, Final residual = 8.93119e-05, No Iterations 1
smoothSolver:  Solving for Uy, Initial residual = 0.000627886, Final residual = 3.6339e-05, No Iterations 2
GAMG:  Solving for p, Initial residual = 0.000488438, Final residual = 4.68108e-05, No Iterations 2
time step continuity errors : sum local = 0.00011656, global = -1.15868e-07, cumulative = 0.00572634
smoothSolver:  Solving for omega, Initial residual = 2.71142e-06, Final residual = 1.99659e-07, No Iterations 1
smoothSolver:  Solving for k, Initial residual = 0.000505664, Final residual = 1.65577e-06, No Iterations 1
ExecutionTime = 47.27 s  ClockTime = 47 s

scalarTransport execute: age
smoothSolver:  Solving for age, Initial residual = 0.000514007, Final residual = 4.36617e-05, No Iterations 8

Time = 4994

smoothSolver:  Solving for Ux, Initial residual = 0.00069018, Final residual = 3.12092e-05, No Iterations 2
smoothSolver:  Solving for Uy, Initial residual = 0.000784074, Final residual = 3.3886e-05, No Iterations 2
GAMG:  Solving for p, Initial residual = 0.000466608, Final residual = 4.51271e-05, No Iterations 2
time step continuity errors : sum local = 0.00011236, global = 1.99596e-07, cumulative = 0.00572654
smoothSolver:  Solving for omega, Initial residual = 2.26873e-06, Final residual = 1.66309e-07, No Iterations 1
smoothSolver:  Solving for k, Initial residual = 0.000157512, Final residual = 1.0718e-06, No Iterations 1
ExecutionTime = 47.28 s  ClockTime = 47 s

scalarTransport execute: age
smoothSolver:  Solving for age, Initial residual = 0.000543129, Final residual = 3.885e-05, No Iterations 9

Time = 4995

smoothSolver:  Solving for Ux, Initial residual = 0.000434067, Final residual = 2.15543e-05, No Iterations 2
smoothSolver:  Solving for Uy, Initial residual = 0.000363405, Final residual = 2.44024e-05, No Iterations 2
GAMG:  Solving for p, Initial residual = 0.000365936, Final residual = 3.06436e-05, No Iterations 2
time step continuity errors : sum local = 7.62883e-05, global = 3.59581e-07, cumulative = 0.0057269
smoothSolver:  Solving for omega, Initial residual = 1.74277e-06, Final residual = 1.31452e-07, No Iterations 1
smoothSolver:  Solving for k, Initial residual = 0.000151615, Final residual = 7.47559e-07, No Iterations 1
ExecutionTime = 47.29 s  ClockTime = 47 s

scalarTransport execute: age
smoothSolver:  Solving for age, Initial residual = 0.000478964, Final residual = 3.52825e-05, No Iterations 8

Time = 4996

smoothSolver:  Solving for Ux, Initial residual = 0.000368688, Final residual = 1.97738e-05, No Iterations 2
smoothSolver:  Solving for Uy, Initial residual = 0.000630313, Final residual = 5.54737e-05, No Iterations 1
GAMG:  Solving for p, Initial residual = 0.000340563, Final residual = 3.37907e-05, No Iterations 2
time step continuity errors : sum local = 8.41143e-05, global = 7.76802e-07, cumulative = 0.00572768
smoothSolver:  Solving for omega, Initial residual = 1.68412e-06, Final residual = 1.48354e-07, No Iterations 1
smoothSolver:  Solving for k, Initial residual = 0.000107095, Final residual = 7.81563e-07, No Iterations 1
ExecutionTime = 47.3 s  ClockTime = 47 s

scalarTransport execute: age
smoothSolver:  Solving for age, Initial residual = 0.000413711, Final residual = 3.41394e-05, No Iterations 9

Time = 4997

smoothSolver:  Solving for Ux, Initial residual = 0.00676325, Final residual = 2.95812e-05, No Iterations 1
smoothSolver:  Solving for Uy, Initial residual = 0.0303549, Final residual = 7.11125e-05, No Iterations 1
GAMG:  Solving for p, Initial residual = 0.000406547, Final residual = 1.43643e-05, No Iterations 3
time step continuity errors : sum local = 3.57538e-05, global = 3.93244e-07, cumulative = 0.00572807
smoothSolver:  Solving for omega, Initial residual = 1.91458e-06, Final residual = 1.49424e-07, No Iterations 1
smoothSolver:  Solving for k, Initial residual = 0.000276825, Final residual = 1.71004e-06, No Iterations 1
ExecutionTime = 47.31 s  ClockTime = 47 s

scalarTransport execute: age
smoothSolver:  Solving for age, Initial residual = 0.000501638, Final residual = 3.7238e-05, No Iterations 9

Time = 4998

smoothSolver:  Solving for Ux, Initial residual = 0.000431445, Final residual = 2.59391e-05, No Iterations 2
smoothSolver:  Solving for Uy, Initial residual = 0.000375305, Final residual = 2.50553e-05, No Iterations 2
GAMG:  Solving for p, Initial residual = 0.000299784, Final residual = 1.04221e-05, No Iterations 3
time step continuity errors : sum local = 2.59406e-05, global = 6.68353e-07, cumulative = 0.00572874
smoothSolver:  Solving for omega, Initial residual = 1.75864e-06, Final residual = 1.44142e-07, No Iterations 1
smoothSolver:  Solving for k, Initial residual = 0.000191667, Final residual = 1.06505e-06, No Iterations 1
ExecutionTime = 47.32 s  ClockTime = 47 s

scalarTransport execute: age
smoothSolver:  Solving for age, Initial residual = 0.000465962, Final residual = 3.73244e-05, No Iterations 8

Time = 4999

smoothSolver:  Solving for Ux, Initial residual = 0.000928568, Final residual = 4.99396e-05, No Iterations 1
smoothSolver:  Solving for Uy, Initial residual = 0.000506695, Final residual = 4.59104e-05, No Iterations 1
GAMG:  Solving for p, Initial residual = 0.000341672, Final residual = 1.41252e-05, No Iterations 3
time step continuity errors : sum local = 3.5159e-05, global = 1.09153e-07, cumulative = 0.00572885
smoothSolver:  Solving for omega, Initial residual = 1.8212e-06, Final residual = 1.44292e-07, No Iterations 1
smoothSolver:  Solving for k, Initial residual = 0.000154201, Final residual = 8.33169e-07, No Iterations 1
ExecutionTime = 47.32 s  ClockTime = 47 s

scalarTransport execute: age
smoothSolver:  Solving for age, Initial residual = 0.000378243, Final residual = 2.97821e-05, No Iterations 8

Time = 5000

smoothSolver:  Solving for Ux, Initial residual = 0.000794488, Final residual = 6.22492e-05, No Iterations 1
smoothSolver:  Solving for Uy, Initial residual = 0.000887477, Final residual = 6.52019e-05, No Iterations 1
GAMG:  Solving for p, Initial residual = 0.000335091, Final residual = 1.29077e-05, No Iterations 3
time step continuity errors : sum local = 3.21287e-05, global = 2.46866e-07, cumulative = 0.0057291
smoothSolver:  Solving for omega, Initial residual = 2.15735e-06, Final residual = 1.63521e-07, No Iterations 1
smoothSolver:  Solving for k, Initial residual = 0.000162268, Final residual = 8.85137e-07, No Iterations 1
ExecutionTime = 47.34 s  ClockTime = 47 s

scalarTransport execute: age
smoothSolver:  Solving for age, Initial residual = 0.000367361, Final residual = 3.66809e-05, No Iterations 7

End

