/*---------------------------------------------------------------------------*\
| =========                 |                                                 |
| \\      /  F ield         | OpenFOAM: The Open Source CFD Toolbox           |
|  \\    /   O peration     | Version:  v2012                                 |
|   \\  /    A nd           | Website:  www.openfoam.com                      |
|    \\/     M anipulation  |                                                 |
\*---------------------------------------------------------------------------*/
Build  : _7bdb509494-20201222 OPENFOAM=2012
Arch   : "LSB;label=32;scalar=64"
Exec   : simpleFoam
Date   : Feb 23 2023
Time   : 01:53:56
Host   : johnsDesktop
PID    : 18016
I/O    : uncollated
Case   : /home/john/of_runs/cases/0_52_2-09800_8
nProcs : 1
trapFpe: Floating point exception trapping enabled (FOAM_SIGFPE).
fileModificationChecking : Monitoring run-time modified files using timeStampMaster (fileModificationSkew 5, maxFileModificationPolls 20)
allowSystemOperations : Allowing user-supplied system call operations

// * * * * * * * * * * * * * * * * * * * * * * * * * * * * * * * * * * * * * //
Create time

Create mesh for time = 0


SIMPLE: convergence criteria
    field p	 tolerance 1e-06
    field U	 tolerance 1e-06
    field "(k|epsilon|omega|f|v2|age)"	 tolerance 1e-05

Reading field p

Reading field U

Reading/calculating face flux field phi

Selecting incompressible transport model Newtonian
Selecting turbulence model type RAS
Selecting RAS turbulence model kOmegaSST
Selecting patchDistMethod meshWave
RAS
{
    RASModel        kOmegaSST;
    turbulence      on;
    printCoeffs     on;
    alphaK1         0.85;
    alphaK2         1;
    alphaOmega1     0.5;
    alphaOmega2     0.856;
    gamma1          0.555556;
    gamma2          0.44;
    beta1           0.075;
    beta2           0.0828;
    betaStar        0.09;
    a1              0.31;
    b1              1;
    c1              10;
    F3              false;
    decayControl    false;
    kInf            0;
    omegaInf        0;
}

No MRF models present

No finite volume options present

Starting time loop

Selecting finite volume options type scalarSemiImplicitSource
    Source: unitySource
    - selecting all cells
    - selected 6057 cell(s) with volume 0.03174
Time = 1

smoothSolver:  Solving for Ux, Initial residual = 0, Final residual = 0, No Iterations 0
smoothSolver:  Solving for Uy, Initial residual = 1, Final residual = 0.0759403, No Iterations 2
GAMG:  Solving for p, Initial residual = 1, Final residual = 0.0549061, No Iterations 16
time step continuity errors : sum local = 0.00345974, global = -0.000451845, cumulative = -0.000451845
smoothSolver:  Solving for omega, Initial residual = 0.263627, Final residual = 0.0119395, No Iterations 3
smoothSolver:  Solving for k, Initial residual = 1, Final residual = 0.0800662, No Iterations 3
ExecutionTime = 0.05 s  ClockTime = 0 s

scalarTransport execute: age
smoothSolver:  Solving for age, Initial residual = 1, Final residual = 0.0898106, No Iterations 5

Time = 2

smoothSolver:  Solving for Ux, Initial residual = 0.525465, Final residual = 0.0425739, No Iterations 6
smoothSolver:  Solving for Uy, Initial residual = 0.266995, Final residual = 0.0177977, No Iterations 6
GAMG:  Solving for p, Initial residual = 0.0589691, Final residual = 0.00455165, No Iterations 4
time step continuity errors : sum local = 0.043862, global = 0.00385024, cumulative = 0.00339839
smoothSolver:  Solving for omega, Initial residual = 0.23402, Final residual = 0.0224733, No Iterations 3
smoothSolver:  Solving for k, Initial residual = 0.606285, Final residual = 0.0550286, No Iterations 4
ExecutionTime = 0.06 s  ClockTime = 0 s

scalarTransport execute: age
smoothSolver:  Solving for age, Initial residual = 0.588523, Final residual = 0.0539779, No Iterations 5

Time = 3

smoothSolver:  Solving for Ux, Initial residual = 0.224006, Final residual = 0.0160637, No Iterations 6
smoothSolver:  Solving for Uy, Initial residual = 0.0963698, Final residual = 0.00842186, No Iterations 5
GAMG:  Solving for p, Initial residual = 0.0625597, Final residual = 0.00397216, No Iterations 7
time step continuity errors : sum local = 0.0207207, global = 0.00179729, cumulative = 0.00519568
smoothSolver:  Solving for omega, Initial residual = 0.20768, Final residual = 0.0191929, No Iterations 4
smoothSolver:  Solving for k, Initial residual = 0.50136, Final residual = 0.0363865, No Iterations 5
ExecutionTime = 0.08 s  ClockTime = 0 s

scalarTransport execute: age
smoothSolver:  Solving for age, Initial residual = 0.412421, Final residual = 0.0394833, No Iterations 9

Time = 4

smoothSolver:  Solving for Ux, Initial residual = 0.108936, Final residual = 0.0101406, No Iterations 4
smoothSolver:  Solving for Uy, Initial residual = 0.0584416, Final residual = 0.00414118, No Iterations 5
GAMG:  Solving for p, Initial residual = 0.0962856, Final residual = 0.00615654, No Iterations 3
time step continuity errors : sum local = 0.016311, global = 0.00123164, cumulative = 0.00642732
smoothSolver:  Solving for omega, Initial residual = 0.124127, Final residual = 0.008214, No Iterations 5
smoothSolver:  Solving for k, Initial residual = 0.429115, Final residual = 0.0354433, No Iterations 5
ExecutionTime = 0.09 s  ClockTime = 0 s

scalarTransport execute: age
smoothSolver:  Solving for age, Initial residual = 0.254602, Final residual = 0.0218217, No Iterations 3

Time = 5

smoothSolver:  Solving for Ux, Initial residual = 0.0713858, Final residual = 0.00666335, No Iterations 5
smoothSolver:  Solving for Uy, Initial residual = 0.0358065, Final residual = 0.0026426, No Iterations 5
GAMG:  Solving for p, Initial residual = 0.0810409, Final residual = 0.00352459, No Iterations 2
time step continuity errors : sum local = 0.00943819, global = 0.00102462, cumulative = 0.00745194
smoothSolver:  Solving for omega, Initial residual = 0.0844911, Final residual = 0.0062321, No Iterations 5
smoothSolver:  Solving for k, Initial residual = 0.340063, Final residual = 0.030518, No Iterations 5
ExecutionTime = 0.1 s  ClockTime = 0 s

scalarTransport execute: age
smoothSolver:  Solving for age, Initial residual = 0.19741, Final residual = 0.0188115, No Iterations 3

Time = 6

smoothSolver:  Solving for Ux, Initial residual = 0.0560006, Final residual = 0.0038719, No Iterations 6
smoothSolver:  Solving for Uy, Initial residual = 0.0307902, Final residual = 0.00246364, No Iterations 5
GAMG:  Solving for p, Initial residual = 0.0648748, Final residual = 0.003976, No Iterations 2
time step continuity errors : sum local = 0.010411, global = 0.000550513, cumulative = 0.00800245
smoothSolver:  Solving for omega, Initial residual = 0.0631505, Final residual = 0.00501429, No Iterations 5
smoothSolver:  Solving for k, Initial residual = 0.27152, Final residual = 0.0258747, No Iterations 5
ExecutionTime = 0.11 s  ClockTime = 0 s

scalarTransport execute: age
smoothSolver:  Solving for age, Initial residual = 0.165936, Final residual = 0.0124527, No Iterations 4

Time = 7

smoothSolver:  Solving for Ux, Initial residual = 0.0477936, Final residual = 0.00331802, No Iterations 6
smoothSolver:  Solving for Uy, Initial residual = 0.0259119, Final residual = 0.00219685, No Iterations 5
GAMG:  Solving for p, Initial residual = 0.0507945, Final residual = 0.00471922, No Iterations 2
time step continuity errors : sum local = 0.0127265, global = -0.000372844, cumulative = 0.00762961
smoothSolver:  Solving for omega, Initial residual = 0.047583, Final residual = 0.00402693, No Iterations 5
smoothSolver:  Solving for k, Initial residual = 0.22431, Final residual = 0.0223226, No Iterations 5
ExecutionTime = 0.12 s  ClockTime = 0 s

scalarTransport execute: age
smoothSolver:  Solving for age, Initial residual = 0.144903, Final residual = 0.0103721, No Iterations 4

Time = 8

smoothSolver:  Solving for Ux, Initial residual = 0.0390538, Final residual = 0.0038759, No Iterations 5
smoothSolver:  Solving for Uy, Initial residual = 0.0255786, Final residual = 0.00237033, No Iterations 5
GAMG:  Solving for p, Initial residual = 0.0431755, Final residual = 0.00279475, No Iterations 3
time step continuity errors : sum local = 0.00766097, global = -0.000212891, cumulative = 0.00741671
smoothSolver:  Solving for omega, Initial residual = 0.0370112, Final residual = 0.00324765, No Iterations 5
smoothSolver:  Solving for k, Initial residual = 0.19008, Final residual = 0.0124295, No Iterations 6
ExecutionTime = 0.13 s  ClockTime = 0 s

scalarTransport execute: age
smoothSolver:  Solving for age, Initial residual = 0.129395, Final residual = 0.0111075, No Iterations 3

Time = 9

smoothSolver:  Solving for Ux, Initial residual = 0.0365828, Final residual = 0.00347874, No Iterations 5
smoothSolver:  Solving for Uy, Initial residual = 0.0234325, Final residual = 0.00223586, No Iterations 5
GAMG:  Solving for p, Initial residual = 0.0355758, Final residual = 0.00130785, No Iterations 2
time step continuity errors : sum local = 0.00384634, global = -0.000676691, cumulative = 0.00674002
smoothSolver:  Solving for omega, Initial residual = 0.0301739, Final residual = 0.00271574, No Iterations 5
smoothSolver:  Solving for k, Initial residual = 0.164352, Final residual = 0.0110882, No Iterations 6
ExecutionTime = 0.15 s  ClockTime = 0 s

scalarTransport execute: age
smoothSolver:  Solving for age, Initial residual = 0.112269, Final residual = 0.00923963, No Iterations 3

Time = 10

smoothSolver:  Solving for Ux, Initial residual = 0.0337104, Final residual = 0.00225626, No Iterations 6
smoothSolver:  Solving for Uy, Initial residual = 0.0224617, Final residual = 0.00216292, No Iterations 5
GAMG:  Solving for p, Initial residual = 0.0302385, Final residual = 0.00140451, No Iterations 2
time step continuity errors : sum local = 0.0041444, global = -0.000629256, cumulative = 0.00611077
smoothSolver:  Solving for omega, Initial residual = 0.0246316, Final residual = 0.00227384, No Iterations 5
smoothSolver:  Solving for k, Initial residual = 0.144521, Final residual = 0.00998131, No Iterations 6
ExecutionTime = 0.16 s  ClockTime = 0 s

scalarTransport execute: age
smoothSolver:  Solving for age, Initial residual = 0.0982056, Final residual = 0.00837694, No Iterations 3

Time = 11

smoothSolver:  Solving for Ux, Initial residual = 0.0321028, Final residual = 0.00217222, No Iterations 6
smoothSolver:  Solving for Uy, Initial residual = 0.0217839, Final residual = 0.00216479, No Iterations 5
GAMG:  Solving for p, Initial residual = 0.0280843, Final residual = 0.00144974, No Iterations 2
time step continuity errors : sum local = 0.00427743, global = -0.000542144, cumulative = 0.00556862
smoothSolver:  Solving for omega, Initial residual = 0.0205305, Final residual = 0.001924, No Iterations 5
smoothSolver:  Solving for k, Initial residual = 0.128674, Final residual = 0.00905767, No Iterations 6
ExecutionTime = 0.17 s  ClockTime = 0 s

scalarTransport execute: age
smoothSolver:  Solving for age, Initial residual = 0.087034, Final residual = 0.00752819, No Iterations 3

Time = 12

smoothSolver:  Solving for Ux, Initial residual = 0.0307866, Final residual = 0.00209833, No Iterations 6
smoothSolver:  Solving for Uy, Initial residual = 0.0213008, Final residual = 0.00142516, No Iterations 6
GAMG:  Solving for p, Initial residual = 0.026774, Final residual = 0.00147923, No Iterations 2
time step continuity errors : sum local = 0.00434552, global = -0.000407009, cumulative = 0.00516162
smoothSolver:  Solving for omega, Initial residual = 0.0173187, Final residual = 0.00164249, No Iterations 5
smoothSolver:  Solving for k, Initial residual = 0.115684, Final residual = 0.0082676, No Iterations 6
ExecutionTime = 0.18 s  ClockTime = 0 s

scalarTransport execute: age
smoothSolver:  Solving for age, Initial residual = 0.0774329, Final residual = 0.00672915, No Iterations 3

Time = 13

smoothSolver:  Solving for Ux, Initial residual = 0.029639, Final residual = 0.00203024, No Iterations 6
smoothSolver:  Solving for Uy, Initial residual = 0.020923, Final residual = 0.00142433, No Iterations 6
GAMG:  Solving for p, Initial residual = 0.0257989, Final residual = 0.00147869, No Iterations 2
time step continuity errors : sum local = 0.00431647, global = -0.000238928, cumulative = 0.00492269
smoothSolver:  Solving for omega, Initial residual = 0.0148114, Final residual = 0.00141415, No Iterations 5
smoothSolver:  Solving for k, Initial residual = 0.104856, Final residual = 0.0075861, No Iterations 6
ExecutionTime = 0.19 s  ClockTime = 0 s

scalarTransport execute: age
smoothSolver:  Solving for age, Initial residual = 0.0690489, Final residual = 0.00598507, No Iterations 3

Time = 14

smoothSolver:  Solving for Ux, Initial residual = 0.0285951, Final residual = 0.00196558, No Iterations 6
smoothSolver:  Solving for Uy, Initial residual = 0.0206424, Final residual = 0.00142497, No Iterations 6
GAMG:  Solving for p, Initial residual = 0.024779, Final residual = 0.0014516, No Iterations 2
time step continuity errors : sum local = 0.00421072, global = -6.18334e-05, cumulative = 0.00486085
smoothSolver:  Solving for omega, Initial residual = 0.0128138, Final residual = 0.00122796, No Iterations 5
smoothSolver:  Solving for k, Initial residual = 0.0956984, Final residual = 0.00699147, No Iterations 6
ExecutionTime = 0.2 s  ClockTime = 0 s

scalarTransport execute: age
smoothSolver:  Solving for age, Initial residual = 0.0623593, Final residual = 0.0055012, No Iterations 3

Time = 15

smoothSolver:  Solving for Ux, Initial residual = 0.0276255, Final residual = 0.0019037, No Iterations 6
smoothSolver:  Solving for Uy, Initial residual = 0.0204221, Final residual = 0.00141925, No Iterations 6
GAMG:  Solving for p, Initial residual = 0.0237399, Final residual = 0.00141173, No Iterations 2
time step continuity errors : sum local = 0.00407068, global = 8.51858e-05, cumulative = 0.00494604
smoothSolver:  Solving for omega, Initial residual = 0.0112085, Final residual = 0.00107497, No Iterations 5
smoothSolver:  Solving for k, Initial residual = 0.087861, Final residual = 0.00646857, No Iterations 6
ExecutionTime = 0.21 s  ClockTime = 0 s

scalarTransport execute: age
smoothSolver:  Solving for age, Initial residual = 0.0566298, Final residual = 0.00524743, No Iterations 3

Time = 16

smoothSolver:  Solving for Ux, Initial residual = 0.026743, Final residual = 0.00184856, No Iterations 6
smoothSolver:  Solving for Uy, Initial residual = 0.0202066, Final residual = 0.00140672, No Iterations 6
GAMG:  Solving for p, Initial residual = 0.0225663, Final residual = 0.0013698, No Iterations 2
time step continuity errors : sum local = 0.00393029, global = 0.000200542, cumulative = 0.00514658
smoothSolver:  Solving for omega, Initial residual = 0.00989072, Final residual = 0.000948108, No Iterations 5
smoothSolver:  Solving for k, Initial residual = 0.08107, Final residual = 0.00600512, No Iterations 6
ExecutionTime = 0.23 s  ClockTime = 0 s

scalarTransport execute: age
smoothSolver:  Solving for age, Initial residual = 0.0517381, Final residual = 0.00514592, No Iterations 3

Time = 17

smoothSolver:  Solving for Ux, Initial residual = 0.0259463, Final residual = 0.00180045, No Iterations 6
smoothSolver:  Solving for Uy, Initial residual = 0.0199128, Final residual = 0.00139145, No Iterations 6
GAMG:  Solving for p, Initial residual = 0.0213735, Final residual = 0.0013435, No Iterations 2
time step continuity errors : sum local = 0.00383025, global = 0.000273051, cumulative = 0.00541963
smoothSolver:  Solving for omega, Initial residual = 0.00880064, Final residual = 0.000842145, No Iterations 5
smoothSolver:  Solving for k, Initial residual = 0.0751084, Final residual = 0.00559039, No Iterations 6
ExecutionTime = 0.24 s  ClockTime = 0 s

scalarTransport execute: age
smoothSolver:  Solving for age, Initial residual = 0.0475209, Final residual = 0.00404643, No Iterations 4

Time = 18

smoothSolver:  Solving for Ux, Initial residual = 0.0251995, Final residual = 0.00175688, No Iterations 6
smoothSolver:  Solving for Uy, Initial residual = 0.0195873, Final residual = 0.00137184, No Iterations 6
GAMG:  Solving for p, Initial residual = 0.0203197, Final residual = 0.00132304, No Iterations 2
time step continuity errors : sum local = 0.00374821, global = 0.000308132, cumulative = 0.00572776
smoothSolver:  Solving for omega, Initial residual = 0.00788886, Final residual = 0.000752789, No Iterations 5
smoothSolver:  Solving for k, Initial residual = 0.0698193, Final residual = 0.00521666, No Iterations 6
ExecutionTime = 0.25 s  ClockTime = 0 s

scalarTransport execute: age
smoothSolver:  Solving for age, Initial residual = 0.0434137, Final residual = 0.00390703, No Iterations 4

Time = 19

smoothSolver:  Solving for Ux, Initial residual = 0.0245766, Final residual = 0.00171775, No Iterations 6
smoothSolver:  Solving for Uy, Initial residual = 0.0192021, Final residual = 0.0013473, No Iterations 6
GAMG:  Solving for p, Initial residual = 0.0196042, Final residual = 0.00130431, No Iterations 2
time step continuity errors : sum local = 0.00366951, global = 0.00031611, cumulative = 0.00604387
smoothSolver:  Solving for omega, Initial residual = 0.00710565, Final residual = 0.000677024, No Iterations 5
smoothSolver:  Solving for k, Initial residual = 0.0650945, Final residual = 0.00487875, No Iterations 6
ExecutionTime = 0.26 s  ClockTime = 0 s

scalarTransport execute: age
smoothSolver:  Solving for age, Initial residual = 0.0396938, Final residual = 0.00395673, No Iterations 4

Time = 20

smoothSolver:  Solving for Ux, Initial residual = 0.0240424, Final residual = 0.00168359, No Iterations 6
smoothSolver:  Solving for Uy, Initial residual = 0.0188275, Final residual = 0.00131836, No Iterations 6
GAMG:  Solving for p, Initial residual = 0.0194362, Final residual = 0.00128973, No Iterations 2
time step continuity errors : sum local = 0.00360337, global = 0.000306679, cumulative = 0.00635055
smoothSolver:  Solving for omega, Initial residual = 0.00644133, Final residual = 0.000612658, No Iterations 5
smoothSolver:  Solving for k, Initial residual = 0.0608489, Final residual = 0.0045709, No Iterations 6
ExecutionTime = 0.27 s  ClockTime = 0 s

scalarTransport execute: age
smoothSolver:  Solving for age, Initial residual = 0.0365921, Final residual = 0.00341384, No Iterations 5

Time = 21

smoothSolver:  Solving for Ux, Initial residual = 0.0236006, Final residual = 0.00165505, No Iterations 6
smoothSolver:  Solving for Uy, Initial residual = 0.0184287, Final residual = 0.00128522, No Iterations 6
GAMG:  Solving for p, Initial residual = 0.0197151, Final residual = 0.00130081, No Iterations 2
time step continuity errors : sum local = 0.00360902, global = 0.000287549, cumulative = 0.0066381
smoothSolver:  Solving for omega, Initial residual = 0.00587927, Final residual = 0.000556731, No Iterations 5
smoothSolver:  Solving for k, Initial residual = 0.057002, Final residual = 0.00428845, No Iterations 6
ExecutionTime = 0.28 s  ClockTime = 0 s

scalarTransport execute: age
smoothSolver:  Solving for age, Initial residual = 0.0339601, Final residual = 0.00295397, No Iterations 6

Time = 22

smoothSolver:  Solving for Ux, Initial residual = 0.02324, Final residual = 0.00163449, No Iterations 6
smoothSolver:  Solving for Uy, Initial residual = 0.0179723, Final residual = 0.00124931, No Iterations 6
GAMG:  Solving for p, Initial residual = 0.0200723, Final residual = 0.00135464, No Iterations 2
time step continuity errors : sum local = 0.00373405, global = 0.000264422, cumulative = 0.00690252
smoothSolver:  Solving for omega, Initial residual = 0.00539413, Final residual = 0.00050763, No Iterations 5
smoothSolver:  Solving for k, Initial residual = 0.0534817, Final residual = 0.00402773, No Iterations 6
ExecutionTime = 0.29 s  ClockTime = 0 s

scalarTransport execute: age
smoothSolver:  Solving for age, Initial residual = 0.0316091, Final residual = 0.0029387, No Iterations 6

Time = 23

smoothSolver:  Solving for Ux, Initial residual = 0.0229709, Final residual = 0.0016176, No Iterations 6
smoothSolver:  Solving for Uy, Initial residual = 0.0174405, Final residual = 0.00121058, No Iterations 6
GAMG:  Solving for p, Initial residual = 0.0201087, Final residual = 0.00143296, No Iterations 2
time step continuity errors : sum local = 0.00391443, global = 0.000241083, cumulative = 0.00714361
smoothSolver:  Solving for omega, Initial residual = 0.00496495, Final residual = 0.000464102, No Iterations 5
smoothSolver:  Solving for k, Initial residual = 0.0502455, Final residual = 0.00378632, No Iterations 6
ExecutionTime = 0.31 s  ClockTime = 0 s

scalarTransport execute: age
smoothSolver:  Solving for age, Initial residual = 0.0296626, Final residual = 0.00296424, No Iterations 6

Time = 24

smoothSolver:  Solving for Ux, Initial residual = 0.0227101, Final residual = 0.0015999, No Iterations 6
smoothSolver:  Solving for Uy, Initial residual = 0.0168454, Final residual = 0.00116863, No Iterations 6
GAMG:  Solving for p, Initial residual = 0.0196966, Final residual = 0.00148923, No Iterations 2
time step continuity errors : sum local = 0.00404131, global = 0.000218918, cumulative = 0.00736253
smoothSolver:  Solving for omega, Initial residual = 0.00458264, Final residual = 0.000425307, No Iterations 5
smoothSolver:  Solving for k, Initial residual = 0.0472746, Final residual = 0.00356294, No Iterations 6
ExecutionTime = 0.32 s  ClockTime = 0 s

scalarTransport execute: age
smoothSolver:  Solving for age, Initial residual = 0.028543, Final residual = 0.00259432, No Iterations 7

Time = 25

smoothSolver:  Solving for Ux, Initial residual = 0.0224281, Final residual = 0.00157995, No Iterations 6
smoothSolver:  Solving for Uy, Initial residual = 0.0161934, Final residual = 0.00112488, No Iterations 6
GAMG:  Solving for p, Initial residual = 0.0188103, Final residual = 0.0015255, No Iterations 2
time step continuity errors : sum local = 0.00411681, global = 0.000197126, cumulative = 0.00755965
smoothSolver:  Solving for omega, Initial residual = 0.00424973, Final residual = 0.000390575, No Iterations 5
smoothSolver:  Solving for k, Initial residual = 0.0445335, Final residual = 0.00335672, No Iterations 6
ExecutionTime = 0.33 s  ClockTime = 0 s

scalarTransport execute: age
smoothSolver:  Solving for age, Initial residual = 0.027728, Final residual = 0.00269423, No Iterations 7

Time = 26

smoothSolver:  Solving for Ux, Initial residual = 0.0221255, Final residual = 0.00155647, No Iterations 6
smoothSolver:  Solving for Uy, Initial residual = 0.0155146, Final residual = 0.0010817, No Iterations 6
GAMG:  Solving for p, Initial residual = 0.0176815, Final residual = 0.00157168, No Iterations 2
time step continuity errors : sum local = 0.00422308, global = 0.000174312, cumulative = 0.00773396
smoothSolver:  Solving for omega, Initial residual = 0.00395345, Final residual = 0.000359253, No Iterations 5
smoothSolver:  Solving for k, Initial residual = 0.0420055, Final residual = 0.00316667, No Iterations 6
ExecutionTime = 0.34 s  ClockTime = 0 s

scalarTransport execute: age
smoothSolver:  Solving for age, Initial residual = 0.0274337, Final residual = 0.0024758, No Iterations 8

Time = 27

smoothSolver:  Solving for Ux, Initial residual = 0.0218047, Final residual = 0.00153033, No Iterations 6
smoothSolver:  Solving for Uy, Initial residual = 0.0148754, Final residual = 0.00104401, No Iterations 6
GAMG:  Solving for p, Initial residual = 0.0168296, Final residual = 0.00164351, No Iterations 2
time step continuity errors : sum local = 0.00439817, global = 0.000152548, cumulative = 0.00788651
smoothSolver:  Solving for omega, Initial residual = 0.00368589, Final residual = 0.000331128, No Iterations 5
smoothSolver:  Solving for k, Initial residual = 0.039672, Final residual = 0.00299248, No Iterations 6
ExecutionTime = 0.35 s  ClockTime = 0 s

scalarTransport execute: age
smoothSolver:  Solving for age, Initial residual = 0.0275006, Final residual = 0.00272287, No Iterations 8

Time = 28

smoothSolver:  Solving for Ux, Initial residual = 0.0214822, Final residual = 0.00150316, No Iterations 6
smoothSolver:  Solving for Uy, Initial residual = 0.0143434, Final residual = 0.00101296, No Iterations 6
GAMG:  Solving for p, Initial residual = 0.0162653, Final residual = 0.00142137, No Iterations 3
time step continuity errors : sum local = 0.00377971, global = 0.000130946, cumulative = 0.00801746
smoothSolver:  Solving for omega, Initial residual = 0.00349292, Final residual = 0.000306613, No Iterations 5
smoothSolver:  Solving for k, Initial residual = 0.0375248, Final residual = 0.00283518, No Iterations 6
ExecutionTime = 0.36 s  ClockTime = 0 s

scalarTransport execute: age
smoothSolver:  Solving for age, Initial residual = 0.0279548, Final residual = 0.00271803, No Iterations 9

Time = 29

smoothSolver:  Solving for Ux, Initial residual = 0.021509, Final residual = 0.00150098, No Iterations 6
smoothSolver:  Solving for Uy, Initial residual = 0.0141583, Final residual = 0.000996044, No Iterations 6
GAMG:  Solving for p, Initial residual = 0.0158391, Final residual = 0.00132229, No Iterations 2
time step continuity errors : sum local = 0.00346436, global = 0.000116586, cumulative = 0.00813404
smoothSolver:  Solving for omega, Initial residual = 0.00325364, Final residual = 0.000284001, No Iterations 5
smoothSolver:  Solving for k, Initial residual = 0.035601, Final residual = 0.00269185, No Iterations 6
ExecutionTime = 0.38 s  ClockTime = 0 s

scalarTransport execute: age
smoothSolver:  Solving for age, Initial residual = 0.0283681, Final residual = 0.00273422, No Iterations 10

Time = 30

smoothSolver:  Solving for Ux, Initial residual = 0.0208789, Final residual = 0.0014533, No Iterations 6
smoothSolver:  Solving for Uy, Initial residual = 0.0134858, Final residual = 0.000964007, No Iterations 6
GAMG:  Solving for p, Initial residual = 0.0157366, Final residual = 0.00103476, No Iterations 3
time step continuity errors : sum local = 0.00270127, global = 0.0001004, cumulative = 0.00823444
smoothSolver:  Solving for omega, Initial residual = 0.00305423, Final residual = 0.00026275, No Iterations 5
smoothSolver:  Solving for k, Initial residual = 0.033847, Final residual = 0.00256161, No Iterations 6
ExecutionTime = 0.39 s  ClockTime = 0 s

scalarTransport execute: age
smoothSolver:  Solving for age, Initial residual = 0.0290386, Final residual = 0.00271931, No Iterations 11

Time = 31

smoothSolver:  Solving for Ux, Initial residual = 0.0205125, Final residual = 0.00140876, No Iterations 6
smoothSolver:  Solving for Uy, Initial residual = 0.0131417, Final residual = 0.000943158, No Iterations 6
GAMG:  Solving for p, Initial residual = 0.0145733, Final residual = 0.00141882, No Iterations 2
time step continuity errors : sum local = 0.00369044, global = 8.81328e-05, cumulative = 0.00832258
smoothSolver:  Solving for omega, Initial residual = 0.00288731, Final residual = 0.000244832, No Iterations 5
smoothSolver:  Solving for k, Initial residual = 0.0322667, Final residual = 0.00244129, No Iterations 6
ExecutionTime = 0.4 s  ClockTime = 0 s

scalarTransport execute: age
smoothSolver:  Solving for age, Initial residual = 0.0302989, Final residual = 0.00267419, No Iterations 12

Time = 32

smoothSolver:  Solving for Ux, Initial residual = 0.0199431, Final residual = 0.00136193, No Iterations 6
smoothSolver:  Solving for Uy, Initial residual = 0.012709, Final residual = 0.000917634, No Iterations 6
GAMG:  Solving for p, Initial residual = 0.0146073, Final residual = 0.00122583, No Iterations 3
time step continuity errors : sum local = 0.00317431, global = 0.000103828, cumulative = 0.0084264
smoothSolver:  Solving for omega, Initial residual = 0.00273098, Final residual = 0.000227322, No Iterations 5
smoothSolver:  Solving for k, Initial residual = 0.0308313, Final residual = 0.00233153, No Iterations 6
ExecutionTime = 0.41 s  ClockTime = 0 s

scalarTransport execute: age
smoothSolver:  Solving for age, Initial residual = 0.0316635, Final residual = 0.00299789, No Iterations 12

Time = 33

smoothSolver:  Solving for Ux, Initial residual = 0.0196395, Final residual = 0.00132138, No Iterations 6
smoothSolver:  Solving for Uy, Initial residual = 0.0125683, Final residual = 0.000910371, No Iterations 6
GAMG:  Solving for p, Initial residual = 0.0140443, Final residual = 0.000940484, No Iterations 3
time step continuity errors : sum local = 0.00242231, global = 8.80568e-05, cumulative = 0.00851446
smoothSolver:  Solving for omega, Initial residual = 0.00260159, Final residual = 0.000212189, No Iterations 5
smoothSolver:  Solving for k, Initial residual = 0.029553, Final residual = 0.00223109, No Iterations 6
ExecutionTime = 0.43 s  ClockTime = 0 s

scalarTransport execute: age
smoothSolver:  Solving for age, Initial residual = 0.0313618, Final residual = 0.00302231, No Iterations 12

Time = 34

smoothSolver:  Solving for Ux, Initial residual = 0.019167, Final residual = 0.00128247, No Iterations 6
smoothSolver:  Solving for Uy, Initial residual = 0.0124428, Final residual = 0.000902729, No Iterations 6
GAMG:  Solving for p, Initial residual = 0.0136358, Final residual = 0.000862548, No Iterations 3
time step continuity errors : sum local = 0.00220493, global = 8.34722e-05, cumulative = 0.00859793
smoothSolver:  Solving for omega, Initial residual = 0.00245695, Final residual = 0.000199129, No Iterations 5
smoothSolver:  Solving for k, Initial residual = 0.0283805, Final residual = 0.00213964, No Iterations 6
ExecutionTime = 0.44 s  ClockTime = 0 s

scalarTransport execute: age
smoothSolver:  Solving for age, Initial residual = 0.0308777, Final residual = 0.00298643, No Iterations 12

Time = 35

smoothSolver:  Solving for Ux, Initial residual = 0.0186296, Final residual = 0.00124107, No Iterations 6
smoothSolver:  Solving for Uy, Initial residual = 0.0122661, Final residual = 0.00089432, No Iterations 6
GAMG:  Solving for p, Initial residual = 0.013219, Final residual = 0.000825669, No Iterations 3
time step continuity errors : sum local = 0.00210054, global = 8.25549e-05, cumulative = 0.00868049
smoothSolver:  Solving for omega, Initial residual = 0.00232384, Final residual = 0.000186697, No Iterations 5
smoothSolver:  Solving for k, Initial residual = 0.0273275, Final residual = 0.00205625, No Iterations 6
ExecutionTime = 0.45 s  ClockTime = 0 s

scalarTransport execute: age
smoothSolver:  Solving for age, Initial residual = 0.0301633, Final residual = 0.00285778, No Iterations 12

Time = 36

smoothSolver:  Solving for Ux, Initial residual = 0.0181084, Final residual = 0.00119797, No Iterations 6
smoothSolver:  Solving for Uy, Initial residual = 0.0120879, Final residual = 0.00088649, No Iterations 6
GAMG:  Solving for p, Initial residual = 0.0128351, Final residual = 0.000852029, No Iterations 3
time step continuity errors : sum local = 0.00215566, global = 8.47451e-05, cumulative = 0.00876523
smoothSolver:  Solving for omega, Initial residual = 0.00221936, Final residual = 0.000175695, No Iterations 5
smoothSolver:  Solving for k, Initial residual = 0.0263615, Final residual = 0.00197992, No Iterations 6
ExecutionTime = 0.46 s  ClockTime = 0 s

scalarTransport execute: age
smoothSolver:  Solving for age, Initial residual = 0.0292888, Final residual = 0.00259638, No Iterations 12

Time = 37

smoothSolver:  Solving for Ux, Initial residual = 0.0175584, Final residual = 0.00115315, No Iterations 6
smoothSolver:  Solving for Uy, Initial residual = 0.0119482, Final residual = 0.000881887, No Iterations 6
GAMG:  Solving for p, Initial residual = 0.0124161, Final residual = 0.000878938, No Iterations 3
time step continuity errors : sum local = 0.00220915, global = 8.81362e-05, cumulative = 0.00885337
smoothSolver:  Solving for omega, Initial residual = 0.00211967, Final residual = 0.000165454, No Iterations 5
smoothSolver:  Solving for k, Initial residual = 0.0255032, Final residual = 0.00191015, No Iterations 6
ExecutionTime = 0.48 s  ClockTime = 0 s

scalarTransport execute: age
smoothSolver:  Solving for age, Initial residual = 0.0286496, Final residual = 0.00270944, No Iterations 11

Time = 38

smoothSolver:  Solving for Ux, Initial residual = 0.0170438, Final residual = 0.00111149, No Iterations 6
smoothSolver:  Solving for Uy, Initial residual = 0.0118365, Final residual = 0.000878106, No Iterations 6
GAMG:  Solving for p, Initial residual = 0.0120328, Final residual = 0.000887383, No Iterations 3
time step continuity errors : sum local = 0.00221202, global = 8.72915e-05, cumulative = 0.00894066
smoothSolver:  Solving for omega, Initial residual = 0.00202914, Final residual = 0.000156302, No Iterations 5
smoothSolver:  Solving for k, Initial residual = 0.0247254, Final residual = 0.00184593, No Iterations 6
ExecutionTime = 0.49 s  ClockTime = 0 s

scalarTransport execute: age
smoothSolver:  Solving for age, Initial residual = 0.0278419, Final residual = 0.00242851, No Iterations 11

Time = 39

smoothSolver:  Solving for Ux, Initial residual = 0.0165048, Final residual = 0.00164673, No Iterations 5
smoothSolver:  Solving for Uy, Initial residual = 0.0117568, Final residual = 0.000875258, No Iterations 6
GAMG:  Solving for p, Initial residual = 0.0115426, Final residual = 0.00090563, No Iterations 3
time step continuity errors : sum local = 0.00223857, global = 8.36295e-05, cumulative = 0.00902429
smoothSolver:  Solving for omega, Initial residual = 0.00193264, Final residual = 0.000147398, No Iterations 5
smoothSolver:  Solving for k, Initial residual = 0.0240253, Final residual = 0.00178676, No Iterations 6
ExecutionTime = 0.5 s  ClockTime = 0 s

scalarTransport execute: age
smoothSolver:  Solving for age, Initial residual = 0.0268958, Final residual = 0.00262842, No Iterations 10

Time = 40

smoothSolver:  Solving for Ux, Initial residual = 0.0161492, Final residual = 0.00160477, No Iterations 5
smoothSolver:  Solving for Uy, Initial residual = 0.0116025, Final residual = 0.000864784, No Iterations 6
GAMG:  Solving for p, Initial residual = 0.0113147, Final residual = 0.000897078, No Iterations 3
time step continuity errors : sum local = 0.00219812, global = 8.59467e-05, cumulative = 0.00911024
smoothSolver:  Solving for omega, Initial residual = 0.00184037, Final residual = 0.00013891, No Iterations 5
smoothSolver:  Solving for k, Initial residual = 0.0233743, Final residual = 0.00173174, No Iterations 6
ExecutionTime = 0.51 s  ClockTime = 0 s

scalarTransport execute: age
smoothSolver:  Solving for age, Initial residual = 0.0266825, Final residual = 0.00248837, No Iterations 10

Time = 41

smoothSolver:  Solving for Ux, Initial residual = 0.0157209, Final residual = 0.00155292, No Iterations 5
smoothSolver:  Solving for Uy, Initial residual = 0.0114716, Final residual = 0.000853503, No Iterations 6
GAMG:  Solving for p, Initial residual = 0.0110573, Final residual = 0.000957886, No Iterations 3
time step continuity errors : sum local = 0.0023263, global = 8.78621e-05, cumulative = 0.0091981
smoothSolver:  Solving for omega, Initial residual = 0.00174357, Final residual = 0.0001301, No Iterations 5
smoothSolver:  Solving for k, Initial residual = 0.0227642, Final residual = 0.00168028, No Iterations 6
ExecutionTime = 0.52 s  ClockTime = 0 s

scalarTransport execute: age
smoothSolver:  Solving for age, Initial residual = 0.025976, Final residual = 0.00234967, No Iterations 10

Time = 42

smoothSolver:  Solving for Ux, Initial residual = 0.0152745, Final residual = 0.00149768, No Iterations 5
smoothSolver:  Solving for Uy, Initial residual = 0.0113225, Final residual = 0.000840005, No Iterations 6
GAMG:  Solving for p, Initial residual = 0.0107246, Final residual = 0.000956925, No Iterations 3
time step continuity errors : sum local = 0.00230426, global = 8.9686e-05, cumulative = 0.00928778
smoothSolver:  Solving for omega, Initial residual = 0.00167539, Final residual = 0.000123106, No Iterations 5
smoothSolver:  Solving for k, Initial residual = 0.0221874, Final residual = 0.00163121, No Iterations 6
ExecutionTime = 0.54 s  ClockTime = 0 s

scalarTransport execute: age
smoothSolver:  Solving for age, Initial residual = 0.0252275, Final residual = 0.00224299, No Iterations 10

Time = 43

smoothSolver:  Solving for Ux, Initial residual = 0.0148431, Final residual = 0.00144335, No Iterations 5
smoothSolver:  Solving for Uy, Initial residual = 0.011161, Final residual = 0.000824528, No Iterations 6
GAMG:  Solving for p, Initial residual = 0.0105446, Final residual = 0.00100179, No Iterations 3
time step continuity errors : sum local = 0.00239146, global = 9.02563e-05, cumulative = 0.00937804
smoothSolver:  Solving for omega, Initial residual = 0.00161651, Final residual = 0.000117143, No Iterations 5
smoothSolver:  Solving for k, Initial residual = 0.0216445, Final residual = 0.00158332, No Iterations 6
ExecutionTime = 0.55 s  ClockTime = 0 s

scalarTransport execute: age
smoothSolver:  Solving for age, Initial residual = 0.0242849, Final residual = 0.00213058, No Iterations 10

Time = 44

smoothSolver:  Solving for Ux, Initial residual = 0.0144171, Final residual = 0.00138937, No Iterations 5
smoothSolver:  Solving for Uy, Initial residual = 0.0109655, Final residual = 0.000805327, No Iterations 6
GAMG:  Solving for p, Initial residual = 0.0104135, Final residual = 0.000980088, No Iterations 3
time step continuity errors : sum local = 0.00232, global = 9.09474e-05, cumulative = 0.00946899
smoothSolver:  Solving for omega, Initial residual = 0.0015704, Final residual = 0.000112008, No Iterations 5
smoothSolver:  Solving for k, Initial residual = 0.0211095, Final residual = 0.00153623, No Iterations 6
ExecutionTime = 0.56 s  ClockTime = 0 s

scalarTransport execute: age
smoothSolver:  Solving for age, Initial residual = 0.0232591, Final residual = 0.00231568, No Iterations 9

Time = 45

smoothSolver:  Solving for Ux, Initial residual = 0.0139812, Final residual = 0.0013354, No Iterations 5
smoothSolver:  Solving for Uy, Initial residual = 0.0107414, Final residual = 0.000783001, No Iterations 6
GAMG:  Solving for p, Initial residual = 0.01041, Final residual = 0.00101166, No Iterations 3
time step continuity errors : sum local = 0.00237497, global = 9.07532e-05, cumulative = 0.00955974
smoothSolver:  Solving for omega, Initial residual = 0.00153083, Final residual = 0.00010743, No Iterations 5
smoothSolver:  Solving for k, Initial residual = 0.0205824, Final residual = 0.00148873, No Iterations 6
ExecutionTime = 0.57 s  ClockTime = 0 s

scalarTransport execute: age
smoothSolver:  Solving for age, Initial residual = 0.0222237, Final residual = 0.0021797, No Iterations 9

Time = 46

smoothSolver:  Solving for Ux, Initial residual = 0.0135297, Final residual = 0.0012813, No Iterations 5
smoothSolver:  Solving for Uy, Initial residual = 0.010455, Final residual = 0.000755381, No Iterations 6
GAMG:  Solving for p, Initial residual = 0.0103855, Final residual = 0.000969356, No Iterations 3
time step continuity errors : sum local = 0.00225754, global = 9.19292e-05, cumulative = 0.00965167
smoothSolver:  Solving for omega, Initial residual = 0.00153367, Final residual = 0.000103947, No Iterations 5
smoothSolver:  Solving for k, Initial residual = 0.0200494, Final residual = 0.00144042, No Iterations 6
ExecutionTime = 0.58 s  ClockTime = 0 s

scalarTransport execute: age
smoothSolver:  Solving for age, Initial residual = 0.0211923, Final residual = 0.00204499, No Iterations 9

Time = 47

smoothSolver:  Solving for Ux, Initial residual = 0.0130497, Final residual = 0.00122707, No Iterations 5
smoothSolver:  Solving for Uy, Initial residual = 0.0101358, Final residual = 0.000725268, No Iterations 6
GAMG:  Solving for p, Initial residual = 0.0105109, Final residual = 0.000981859, No Iterations 3
time step continuity errors : sum local = 0.00226864, global = 9.04877e-05, cumulative = 0.00974216
smoothSolver:  Solving for omega, Initial residual = 0.00149944, Final residual = 9.93971e-05, No Iterations 5
smoothSolver:  Solving for k, Initial residual = 0.0195001, Final residual = 0.00139005, No Iterations 6
ExecutionTime = 0.6 s  ClockTime = 0 s

scalarTransport execute: age
smoothSolver:  Solving for age, Initial residual = 0.020098, Final residual = 0.00192467, No Iterations 9

Time = 48

smoothSolver:  Solving for Ux, Initial residual = 0.0125765, Final residual = 0.00117244, No Iterations 5
smoothSolver:  Solving for Uy, Initial residual = 0.00975747, Final residual = 0.00068939, No Iterations 6
GAMG:  Solving for p, Initial residual = 0.01055, Final residual = 0.00092759, No Iterations 3
time step continuity errors : sum local = 0.00212251, global = 8.99449e-05, cumulative = 0.0098321
smoothSolver:  Solving for omega, Initial residual = 0.00146335, Final residual = 9.47983e-05, No Iterations 5
smoothSolver:  Solving for k, Initial residual = 0.0189089, Final residual = 0.00133688, No Iterations 6
ExecutionTime = 0.61 s  ClockTime = 0 s

scalarTransport execute: age
smoothSolver:  Solving for age, Initial residual = 0.0192638, Final residual = 0.00182489, No Iterations 9

Time = 49

smoothSolver:  Solving for Ux, Initial residual = 0.0121255, Final residual = 0.00111793, No Iterations 5
smoothSolver:  Solving for Uy, Initial residual = 0.00937909, Final residual = 0.000652553, No Iterations 6
GAMG:  Solving for p, Initial residual = 0.0109297, Final residual = 0.000899841, No Iterations 3
time step continuity errors : sum local = 0.00203603, global = 8.86837e-05, cumulative = 0.00992079
smoothSolver:  Solving for omega, Initial residual = 0.00141483, Final residual = 9.10194e-05, No Iterations 5
smoothSolver:  Solving for k, Initial residual = 0.0182904, Final residual = 0.00128189, No Iterations 6
ExecutionTime = 0.62 s  ClockTime = 0 s

scalarTransport execute: age
smoothSolver:  Solving for age, Initial residual = 0.0182775, Final residual = 0.0017312, No Iterations 9

Time = 50

smoothSolver:  Solving for Ux, Initial residual = 0.0116627, Final residual = 0.00106287, No Iterations 5
smoothSolver:  Solving for Uy, Initial residual = 0.00893112, Final residual = 0.000610508, No Iterations 6
GAMG:  Solving for p, Initial residual = 0.0112777, Final residual = 0.000826651, No Iterations 3
time step continuity errors : sum local = 0.00185193, global = 9.25171e-05, cumulative = 0.0100133
smoothSolver:  Solving for omega, Initial residual = 0.00140178, Final residual = 8.77203e-05, No Iterations 5
smoothSolver:  Solving for k, Initial residual = 0.0176416, Final residual = 0.00122523, No Iterations 6
ExecutionTime = 0.63 s  ClockTime = 0 s

scalarTransport execute: age
smoothSolver:  Solving for age, Initial residual = 0.0173243, Final residual = 0.00164608, No Iterations 9

Time = 51

smoothSolver:  Solving for Ux, Initial residual = 0.0112151, Final residual = 0.00100949, No Iterations 5
smoothSolver:  Solving for Uy, Initial residual = 0.00849818, Final residual = 0.000568759, No Iterations 6
GAMG:  Solving for p, Initial residual = 0.0118209, Final residual = 0.000805207, No Iterations 3
time step continuity errors : sum local = 0.00179139, global = 9.69431e-05, cumulative = 0.0101102
smoothSolver:  Solving for omega, Initial residual = 0.00137777, Final residual = 8.43267e-05, No Iterations 5
smoothSolver:  Solving for k, Initial residual = 0.0169575, Final residual = 0.00116677, No Iterations 6
ExecutionTime = 0.64 s  ClockTime = 0 s

scalarTransport execute: age
smoothSolver:  Solving for age, Initial residual = 0.0164609, Final residual = 0.00157655, No Iterations 9

Time = 52

smoothSolver:  Solving for Ux, Initial residual = 0.0107903, Final residual = 0.000958889, No Iterations 5
smoothSolver:  Solving for Uy, Initial residual = 0.00804055, Final residual = 0.000524236, No Iterations 6
GAMG:  Solving for p, Initial residual = 0.0120756, Final residual = 0.00078673, No Iterations 3
time step continuity errors : sum local = 0.00174546, global = 0.000104148, cumulative = 0.0102144
smoothSolver:  Solving for omega, Initial residual = 0.00136142, Final residual = 0.000133927, No Iterations 4
smoothSolver:  Solving for k, Initial residual = 0.0162353, Final residual = 0.00110709, No Iterations 6
ExecutionTime = 0.66 s  ClockTime = 0 s

scalarTransport execute: age
smoothSolver:  Solving for age, Initial residual = 0.0156773, Final residual = 0.00151637, No Iterations 9

Time = 53

smoothSolver:  Solving for Ux, Initial residual = 0.0103946, Final residual = 0.000911979, No Iterations 5
smoothSolver:  Solving for Uy, Initial residual = 0.0076126, Final residual = 0.00074419, No Iterations 5
GAMG:  Solving for p, Initial residual = 0.0121777, Final residual = 0.000790505, No Iterations 3
time step continuity errors : sum local = 0.00175414, global = 0.000110866, cumulative = 0.0103253
smoothSolver:  Solving for omega, Initial residual = 0.00135432, Final residual = 0.000130832, No Iterations 4
smoothSolver:  Solving for k, Initial residual = 0.0154919, Final residual = 0.00104778, No Iterations 6
ExecutionTime = 0.67 s  ClockTime = 0 s

scalarTransport execute: age
smoothSolver:  Solving for age, Initial residual = 0.0148738, Final residual = 0.0014806, No Iterations 9

Time = 54

smoothSolver:  Solving for Ux, Initial residual = 0.00995805, Final residual = 0.000865131, No Iterations 5
smoothSolver:  Solving for Uy, Initial residual = 0.00726101, Final residual = 0.000693986, No Iterations 5
GAMG:  Solving for p, Initial residual = 0.0120602, Final residual = 0.000794275, No Iterations 3
time step continuity errors : sum local = 0.00176729, global = 0.000116255, cumulative = 0.0104415
smoothSolver:  Solving for omega, Initial residual = 0.00133106, Final residual = 0.000127055, No Iterations 4
smoothSolver:  Solving for k, Initial residual = 0.0147567, Final residual = 0.000990925, No Iterations 6
ExecutionTime = 0.68 s  ClockTime = 0 s

scalarTransport execute: age
smoothSolver:  Solving for age, Initial residual = 0.0142257, Final residual = 0.00128846, No Iterations 10

Time = 55

smoothSolver:  Solving for Ux, Initial residual = 0.00957981, Final residual = 0.000829725, No Iterations 5
smoothSolver:  Solving for Uy, Initial residual = 0.00689751, Final residual = 0.000648735, No Iterations 5
GAMG:  Solving for p, Initial residual = 0.0118481, Final residual = 0.00078654, No Iterations 3
time step continuity errors : sum local = 0.00175649, global = 0.000119792, cumulative = 0.0105613
smoothSolver:  Solving for omega, Initial residual = 0.00130922, Final residual = 0.000122707, No Iterations 4
smoothSolver:  Solving for k, Initial residual = 0.0140749, Final residual = 0.000937735, No Iterations 6
ExecutionTime = 0.69 s  ClockTime = 0 s

scalarTransport execute: age
smoothSolver:  Solving for age, Initial residual = 0.0137353, Final residual = 0.0012965, No Iterations 10

Time = 56

smoothSolver:  Solving for Ux, Initial residual = 0.0092472, Final residual = 0.000802801, No Iterations 5
smoothSolver:  Solving for Uy, Initial residual = 0.00655723, Final residual = 0.000608883, No Iterations 5
GAMG:  Solving for p, Initial residual = 0.0116824, Final residual = 0.000803569, No Iterations 3
time step continuity errors : sum local = 0.0018019, global = 0.000119981, cumulative = 0.0106813
smoothSolver:  Solving for omega, Initial residual = 0.00128372, Final residual = 0.000117831, No Iterations 4
smoothSolver:  Solving for k, Initial residual = 0.0134574, Final residual = 0.000889234, No Iterations 6
ExecutionTime = 0.7 s  ClockTime = 0 s

scalarTransport execute: age
smoothSolver:  Solving for age, Initial residual = 0.0133844, Final residual = 0.00118083, No Iterations 11

Time = 57

smoothSolver:  Solving for Ux, Initial residual = 0.00896546, Final residual = 0.000782608, No Iterations 5
smoothSolver:  Solving for Uy, Initial residual = 0.00627633, Final residual = 0.000574557, No Iterations 5
GAMG:  Solving for p, Initial residual = 0.0116637, Final residual = 0.000767701, No Iterations 3
time step continuity errors : sum local = 0.00172805, global = 0.000116601, cumulative = 0.0107979
smoothSolver:  Solving for omega, Initial residual = 0.00126027, Final residual = 0.00011295, No Iterations 4
smoothSolver:  Solving for k, Initial residual = 0.0128745, Final residual = 0.00084433, No Iterations 6
ExecutionTime = 0.72 s  ClockTime = 0 s

scalarTransport execute: age
smoothSolver:  Solving for age, Initial residual = 0.0131531, Final residual = 0.00123736, No Iterations 11

Time = 58

smoothSolver:  Solving for Ux, Initial residual = 0.00875617, Final residual = 0.000770469, No Iterations 5
smoothSolver:  Solving for Uy, Initial residual = 0.00598137, Final residual = 0.000543876, No Iterations 5
GAMG:  Solving for p, Initial residual = 0.0119004, Final residual = 0.000703802, No Iterations 3
time step continuity errors : sum local = 0.00158876, global = 0.000114148, cumulative = 0.010912
smoothSolver:  Solving for omega, Initial residual = 0.00122988, Final residual = 0.000108127, No Iterations 4
smoothSolver:  Solving for k, Initial residual = 0.0123392, Final residual = 0.000802348, No Iterations 6
ExecutionTime = 0.73 s  ClockTime = 0 s

scalarTransport execute: age
smoothSolver:  Solving for age, Initial residual = 0.0129887, Final residual = 0.00115097, No Iterations 12

Time = 59

smoothSolver:  Solving for Ux, Initial residual = 0.00862053, Final residual = 0.000761351, No Iterations 5
smoothSolver:  Solving for Uy, Initial residual = 0.00572954, Final residual = 0.000517248, No Iterations 5
GAMG:  Solving for p, Initial residual = 0.0124638, Final residual = 0.00116608, No Iterations 2
time step continuity errors : sum local = 0.00264449, global = 0.000146129, cumulative = 0.0110582
smoothSolver:  Solving for omega, Initial residual = 0.00122616, Final residual = 0.000103788, No Iterations 4
smoothSolver:  Solving for k, Initial residual = 0.0118347, Final residual = 0.000761923, No Iterations 6
ExecutionTime = 0.74 s  ClockTime = 0 s

scalarTransport execute: age
smoothSolver:  Solving for age, Initial residual = 0.0127976, Final residual = 0.001184, No Iterations 12

Time = 60

smoothSolver:  Solving for Ux, Initial residual = 0.00847021, Final residual = 0.000753454, No Iterations 5
smoothSolver:  Solving for Uy, Initial residual = 0.00552086, Final residual = 0.000497346, No Iterations 5
GAMG:  Solving for p, Initial residual = 0.0134432, Final residual = 0.000821979, No Iterations 3
time step continuity errors : sum local = 0.00189329, global = 6.17549e-05, cumulative = 0.0111199
smoothSolver:  Solving for omega, Initial residual = 0.00121064, Final residual = 9.93111e-05, No Iterations 4
smoothSolver:  Solving for k, Initial residual = 0.0113658, Final residual = 0.0011286, No Iterations 5
ExecutionTime = 0.75 s  ClockTime = 0 s

scalarTransport execute: age
smoothSolver:  Solving for age, Initial residual = 0.0131545, Final residual = 0.00127179, No Iterations 12

Time = 61

smoothSolver:  Solving for Ux, Initial residual = 0.00845633, Final residual = 0.000741357, No Iterations 5
smoothSolver:  Solving for Uy, Initial residual = 0.00523906, Final residual = 0.000470811, No Iterations 5
GAMG:  Solving for p, Initial residual = 0.0143459, Final residual = 0.00113856, No Iterations 2
time step continuity errors : sum local = 0.00266742, global = 0.000109716, cumulative = 0.0112296
smoothSolver:  Solving for omega, Initial residual = 0.0011555, Final residual = 9.27736e-05, No Iterations 4
smoothSolver:  Solving for k, Initial residual = 0.0109456, Final residual = 0.00107438, No Iterations 5
ExecutionTime = 0.76 s  ClockTime = 0 s

scalarTransport execute: age
smoothSolver:  Solving for age, Initial residual = 0.0127978, Final residual = 0.00125536, No Iterations 12

Time = 62

smoothSolver:  Solving for Ux, Initial residual = 0.00827473, Final residual = 0.000736935, No Iterations 5
smoothSolver:  Solving for Uy, Initial residual = 0.00510409, Final residual = 0.000459995, No Iterations 5
GAMG:  Solving for p, Initial residual = 0.014675, Final residual = 0.00142872, No Iterations 2
time step continuity errors : sum local = 0.00342867, global = 0.000232129, cumulative = 0.0114618
smoothSolver:  Solving for omega, Initial residual = 0.00108289, Final residual = 8.62438e-05, No Iterations 4
smoothSolver:  Solving for k, Initial residual = 0.0105071, Final residual = 0.00102254, No Iterations 5
ExecutionTime = 0.77 s  ClockTime = 0 s

scalarTransport execute: age
smoothSolver:  Solving for age, Initial residual = 0.0125799, Final residual = 0.00123604, No Iterations 12

Time = 63

smoothSolver:  Solving for Ux, Initial residual = 0.00809255, Final residual = 0.000719112, No Iterations 5
smoothSolver:  Solving for Uy, Initial residual = 0.00496885, Final residual = 0.000441373, No Iterations 5
GAMG:  Solving for p, Initial residual = 0.0144256, Final residual = 0.000766416, No Iterations 3
time step continuity errors : sum local = 0.00181819, global = 6.50556e-06, cumulative = 0.0114683
smoothSolver:  Solving for omega, Initial residual = 0.00104211, Final residual = 7.9513e-05, No Iterations 4
smoothSolver:  Solving for k, Initial residual = 0.0100813, Final residual = 0.000972846, No Iterations 5
ExecutionTime = 0.79 s  ClockTime = 0 s

scalarTransport execute: age
smoothSolver:  Solving for age, Initial residual = 0.0126447, Final residual = 0.00123819, No Iterations 12

Time = 64

smoothSolver:  Solving for Ux, Initial residual = 0.00801026, Final residual = 0.000698387, No Iterations 5
smoothSolver:  Solving for Uy, Initial residual = 0.00496414, Final residual = 0.000432531, No Iterations 5
GAMG:  Solving for p, Initial residual = 0.0139015, Final residual = 0.0010514, No Iterations 2
time step continuity errors : sum local = 0.00245517, global = 8.8353e-05, cumulative = 0.0115566
smoothSolver:  Solving for omega, Initial residual = 0.0010338, Final residual = 7.58202e-05, No Iterations 4
smoothSolver:  Solving for k, Initial residual = 0.00969101, Final residual = 0.000922627, No Iterations 5
ExecutionTime = 0.8 s  ClockTime = 0 s

scalarTransport execute: age
smoothSolver:  Solving for age, Initial residual = 0.0124039, Final residual = 0.00119596, No Iterations 12

Time = 65

smoothSolver:  Solving for Ux, Initial residual = 0.00772962, Final residual = 0.000683207, No Iterations 5
smoothSolver:  Solving for Uy, Initial residual = 0.00486523, Final residual = 0.000416162, No Iterations 5
GAMG:  Solving for p, Initial residual = 0.0130443, Final residual = 0.00124125, No Iterations 2
time step continuity errors : sum local = 0.00291682, global = 0.000194898, cumulative = 0.0117515
smoothSolver:  Solving for omega, Initial residual = 0.000948491, Final residual = 7.19955e-05, No Iterations 4
smoothSolver:  Solving for k, Initial residual = 0.00924525, Final residual = 0.000872739, No Iterations 5
ExecutionTime = 0.81 s  ClockTime = 0 s

scalarTransport execute: age
smoothSolver:  Solving for age, Initial residual = 0.0116815, Final residual = 0.00112436, No Iterations 12

Time = 66

smoothSolver:  Solving for Ux, Initial residual = 0.00746248, Final residual = 0.000653902, No Iterations 5
smoothSolver:  Solving for Uy, Initial residual = 0.00477915, Final residual = 0.000407398, No Iterations 5
GAMG:  Solving for p, Initial residual = 0.0123073, Final residual = 0.000701724, No Iterations 3
time step continuity errors : sum local = 0.00164038, global = -4.25223e-05, cumulative = 0.011709
smoothSolver:  Solving for omega, Initial residual = 0.000942241, Final residual = 6.98355e-05, No Iterations 4
smoothSolver:  Solving for k, Initial residual = 0.00881068, Final residual = 0.00082701, No Iterations 5
ExecutionTime = 0.82 s  ClockTime = 0 s

scalarTransport execute: age
smoothSolver:  Solving for age, Initial residual = 0.011579, Final residual = 0.00106129, No Iterations 12

Time = 67

smoothSolver:  Solving for Ux, Initial residual = 0.00716011, Final residual = 0.000610698, No Iterations 5
smoothSolver:  Solving for Uy, Initial residual = 0.00477259, Final residual = 0.000413323, No Iterations 5
GAMG:  Solving for p, Initial residual = 0.0116905, Final residual = 0.000930103, No Iterations 2
time step continuity errors : sum local = 0.00217108, global = 0.00010562, cumulative = 0.0118146
smoothSolver:  Solving for omega, Initial residual = 0.000945061, Final residual = 6.78833e-05, No Iterations 4
smoothSolver:  Solving for k, Initial residual = 0.00851743, Final residual = 0.000783426, No Iterations 5
ExecutionTime = 0.83 s  ClockTime = 0 s

scalarTransport execute: age
smoothSolver:  Solving for age, Initial residual = 0.0111824, Final residual = 0.000991031, No Iterations 12

Time = 68

smoothSolver:  Solving for Ux, Initial residual = 0.00674138, Final residual = 0.000582794, No Iterations 5
smoothSolver:  Solving for Uy, Initial residual = 0.00473306, Final residual = 0.000395859, No Iterations 5
GAMG:  Solving for p, Initial residual = 0.0101452, Final residual = 0.000589232, No Iterations 3
time step continuity errors : sum local = 0.00136412, global = -2.99339e-05, cumulative = 0.0117847
smoothSolver:  Solving for omega, Initial residual = 0.000911379, Final residual = 6.37945e-05, No Iterations 4
smoothSolver:  Solving for k, Initial residual = 0.00814579, Final residual = 0.000744803, No Iterations 5
ExecutionTime = 0.85 s  ClockTime = 0 s

scalarTransport execute: age
smoothSolver:  Solving for age, Initial residual = 0.0106541, Final residual = 0.00104552, No Iterations 11

Time = 69

smoothSolver:  Solving for Ux, Initial residual = 0.00640058, Final residual = 0.000542601, No Iterations 5
smoothSolver:  Solving for Uy, Initial residual = 0.00464855, Final residual = 0.0003952, No Iterations 5
GAMG:  Solving for p, Initial residual = 0.00957609, Final residual = 0.000775932, No Iterations 2
time step continuity errors : sum local = 0.00178399, global = 0.000128829, cumulative = 0.0119135
smoothSolver:  Solving for omega, Initial residual = 0.00088501, Final residual = 6.16828e-05, No Iterations 4
smoothSolver:  Solving for k, Initial residual = 0.00788894, Final residual = 0.000704606, No Iterations 5
ExecutionTime = 0.86 s  ClockTime = 0 s

scalarTransport execute: age
smoothSolver:  Solving for age, Initial residual = 0.00995757, Final residual = 0.000958352, No Iterations 11

Time = 70

smoothSolver:  Solving for Ux, Initial residual = 0.00597501, Final residual = 0.000508697, No Iterations 5
smoothSolver:  Solving for Uy, Initial residual = 0.00450857, Final residual = 0.000371397, No Iterations 5
GAMG:  Solving for p, Initial residual = 0.00847793, Final residual = 0.000559571, No Iterations 3
time step continuity errors : sum local = 0.00127064, global = -2.36683e-05, cumulative = 0.0118898
smoothSolver:  Solving for omega, Initial residual = 0.000869641, Final residual = 5.80162e-05, No Iterations 4
smoothSolver:  Solving for k, Initial residual = 0.00754889, Final residual = 0.00066796, No Iterations 5
ExecutionTime = 0.87 s  ClockTime = 0 s

scalarTransport execute: age
smoothSolver:  Solving for age, Initial residual = 0.00952424, Final residual = 0.000872118, No Iterations 11

Time = 71

smoothSolver:  Solving for Ux, Initial residual = 0.00561031, Final residual = 0.00046641, No Iterations 5
smoothSolver:  Solving for Uy, Initial residual = 0.00448909, Final residual = 0.00037138, No Iterations 5
GAMG:  Solving for p, Initial residual = 0.00800239, Final residual = 0.000690494, No Iterations 2
time step continuity errors : sum local = 0.00155753, global = 0.00013184, cumulative = 0.0120217
smoothSolver:  Solving for omega, Initial residual = 0.000846109, Final residual = 5.50759e-05, No Iterations 4
smoothSolver:  Solving for k, Initial residual = 0.00732128, Final residual = 0.000630639, No Iterations 5
ExecutionTime = 0.88 s  ClockTime = 0 s

scalarTransport execute: age
smoothSolver:  Solving for age, Initial residual = 0.00896509, Final residual = 0.000803626, No Iterations 11

Time = 72

smoothSolver:  Solving for Ux, Initial residual = 0.00521691, Final residual = 0.000430647, No Iterations 5
smoothSolver:  Solving for Uy, Initial residual = 0.00428972, Final residual = 0.000346281, No Iterations 5
GAMG:  Solving for p, Initial residual = 0.0077969, Final residual = 0.000496948, No Iterations 3
time step continuity errors : sum local = 0.00111582, global = -2.19148e-05, cumulative = 0.0119998
smoothSolver:  Solving for omega, Initial residual = 0.000832422, Final residual = 5.18485e-05, No Iterations 4
smoothSolver:  Solving for k, Initial residual = 0.0069849, Final residual = 0.000596405, No Iterations 5
ExecutionTime = 0.89 s  ClockTime = 0 s

scalarTransport execute: age
smoothSolver:  Solving for age, Initial residual = 0.00859736, Final residual = 0.000747213, No Iterations 11

Time = 73

smoothSolver:  Solving for Ux, Initial residual = 0.0049076, Final residual = 0.000392753, No Iterations 5
smoothSolver:  Solving for Uy, Initial residual = 0.00431042, Final residual = 0.000347116, No Iterations 5
GAMG:  Solving for p, Initial residual = 0.00755704, Final residual = 0.00064134, No Iterations 2
time step continuity errors : sum local = 0.00143013, global = 0.000122188, cumulative = 0.012122
smoothSolver:  Solving for omega, Initial residual = 0.000811021, Final residual = 4.90503e-05, No Iterations 4
smoothSolver:  Solving for k, Initial residual = 0.00674317, Final residual = 0.000562715, No Iterations 5
ExecutionTime = 0.9 s  ClockTime = 0 s

scalarTransport execute: age
smoothSolver:  Solving for age, Initial residual = 0.00807985, Final residual = 0.000705343, No Iterations 11

Time = 74

smoothSolver:  Solving for Ux, Initial residual = 0.0045352, Final residual = 0.000359598, No Iterations 5
smoothSolver:  Solving for Uy, Initial residual = 0.00412477, Final residual = 0.000324916, No Iterations 5
GAMG:  Solving for p, Initial residual = 0.00751397, Final residual = 0.000461138, No Iterations 3
time step continuity errors : sum local = 0.00102682, global = -2.8663e-05, cumulative = 0.0120933
smoothSolver:  Solving for omega, Initial residual = 0.00079657, Final residual = 4.62623e-05, No Iterations 4
smoothSolver:  Solving for k, Initial residual = 0.00638483, Final residual = 0.000531478, No Iterations 5
ExecutionTime = 0.92 s  ClockTime = 0 s

scalarTransport execute: age
smoothSolver:  Solving for age, Initial residual = 0.00771379, Final residual = 0.000671102, No Iterations 11

Time = 75

smoothSolver:  Solving for Ux, Initial residual = 0.00427501, Final residual = 0.000326386, No Iterations 5
smoothSolver:  Solving for Uy, Initial residual = 0.00411397, Final residual = 0.000322357, No Iterations 5
GAMG:  Solving for p, Initial residual = 0.00725183, Final residual = 0.000611444, No Iterations 2
time step continuity errors : sum local = 0.00135172, global = 0.000105325, cumulative = 0.0121986
smoothSolver:  Solving for omega, Initial residual = 0.000769164, Final residual = 4.40436e-05, No Iterations 4
smoothSolver:  Solving for k, Initial residual = 0.00612044, Final residual = 0.000501288, No Iterations 5
ExecutionTime = 0.93 s  ClockTime = 1 s

scalarTransport execute: age
smoothSolver:  Solving for age, Initial residual = 0.00728901, Final residual = 0.000650084, No Iterations 11

Time = 76

smoothSolver:  Solving for Ux, Initial residual = 0.00396328, Final residual = 0.000297541, No Iterations 5
smoothSolver:  Solving for Uy, Initial residual = 0.00391089, Final residual = 0.000299297, No Iterations 5
GAMG:  Solving for p, Initial residual = 0.00724958, Final residual = 0.000711111, No Iterations 2
time step continuity errors : sum local = 0.00157258, global = 0.000253437, cumulative = 0.0124521
smoothSolver:  Solving for omega, Initial residual = 0.000738805, Final residual = 7.31399e-05, No Iterations 3
smoothSolver:  Solving for k, Initial residual = 0.00578227, Final residual = 0.00047325, No Iterations 5
ExecutionTime = 0.94 s  ClockTime = 1 s

scalarTransport execute: age
smoothSolver:  Solving for age, Initial residual = 0.00693185, Final residual = 0.000637329, No Iterations 11

Time = 77

smoothSolver:  Solving for Ux, Initial residual = 0.00369314, Final residual = 0.000268346, No Iterations 5
smoothSolver:  Solving for Uy, Initial residual = 0.00376564, Final residual = 0.000281748, No Iterations 5
GAMG:  Solving for p, Initial residual = 0.00722797, Final residual = 0.000425312, No Iterations 3
time step continuity errors : sum local = 0.000940886, global = -4.05791e-05, cumulative = 0.0124115
smoothSolver:  Solving for omega, Initial residual = 0.000743459, Final residual = 6.97055e-05, No Iterations 3
smoothSolver:  Solving for k, Initial residual = 0.0053954, Final residual = 0.000447059, No Iterations 5
ExecutionTime = 0.95 s  ClockTime = 1 s

scalarTransport execute: age
smoothSolver:  Solving for age, Initial residual = 0.00666778, Final residual = 0.000623903, No Iterations 11

Time = 78

smoothSolver:  Solving for Ux, Initial residual = 0.00357372, Final residual = 0.000247978, No Iterations 5
smoothSolver:  Solving for Uy, Initial residual = 0.00371666, Final residual = 0.000275765, No Iterations 5
GAMG:  Solving for p, Initial residual = 0.00690277, Final residual = 0.00054529, No Iterations 2
time step continuity errors : sum local = 0.0011953, global = 7.97577e-05, cumulative = 0.0124912
smoothSolver:  Solving for omega, Initial residual = 0.000715028, Final residual = 6.81076e-05, No Iterations 3
smoothSolver:  Solving for k, Initial residual = 0.00513978, Final residual = 0.000422098, No Iterations 5
ExecutionTime = 0.96 s  ClockTime = 1 s

scalarTransport execute: age
smoothSolver:  Solving for age, Initial residual = 0.00641066, Final residual = 0.000627482, No Iterations 11

Time = 79

smoothSolver:  Solving for Ux, Initial residual = 0.00327829, Final residual = 0.00022623, No Iterations 5
smoothSolver:  Solving for Uy, Initial residual = 0.00347763, Final residual = 0.000254151, No Iterations 5
GAMG:  Solving for p, Initial residual = 0.00674137, Final residual = 0.000603507, No Iterations 2
time step continuity errors : sum local = 0.00132545, global = 0.000208028, cumulative = 0.0126993
smoothSolver:  Solving for omega, Initial residual = 0.000682883, Final residual = 6.60084e-05, No Iterations 3
smoothSolver:  Solving for k, Initial residual = 0.00479832, Final residual = 0.000398396, No Iterations 5
ExecutionTime = 0.97 s  ClockTime = 1 s

scalarTransport execute: age
smoothSolver:  Solving for age, Initial residual = 0.00617454, Final residual = 0.000551763, No Iterations 12

Time = 80

smoothSolver:  Solving for Ux, Initial residual = 0.00307101, Final residual = 0.000207939, No Iterations 5
smoothSolver:  Solving for Uy, Initial residual = 0.00327232, Final residual = 0.000232643, No Iterations 5
GAMG:  Solving for p, Initial residual = 0.00665375, Final residual = 0.000631178, No Iterations 2
time step continuity errors : sum local = 0.0013872, global = 0.000269035, cumulative = 0.0129683
smoothSolver:  Solving for omega, Initial residual = 0.000648336, Final residual = 6.35996e-05, No Iterations 3
smoothSolver:  Solving for k, Initial residual = 0.00446149, Final residual = 0.000376082, No Iterations 5
ExecutionTime = 0.98 s  ClockTime = 1 s

scalarTransport execute: age
smoothSolver:  Solving for age, Initial residual = 0.00593274, Final residual = 0.000552566, No Iterations 12

Time = 81

smoothSolver:  Solving for Ux, Initial residual = 0.00294051, Final residual = 0.000195256, No Iterations 5
smoothSolver:  Solving for Uy, Initial residual = 0.00311269, Final residual = 0.000215546, No Iterations 5
GAMG:  Solving for p, Initial residual = 0.0062947, Final residual = 0.000516065, No Iterations 2
time step continuity errors : sum local = 0.00113101, global = 0.000207616, cumulative = 0.0131759
smoothSolver:  Solving for omega, Initial residual = 0.000627358, Final residual = 6.15274e-05, No Iterations 3
smoothSolver:  Solving for k, Initial residual = 0.00415504, Final residual = 0.000355083, No Iterations 5
ExecutionTime = 1 s  ClockTime = 1 s

scalarTransport execute: age
smoothSolver:  Solving for age, Initial residual = 0.00567713, Final residual = 0.000551105, No Iterations 12

Time = 82

smoothSolver:  Solving for Ux, Initial residual = 0.00278221, Final residual = 0.000183707, No Iterations 5
smoothSolver:  Solving for Uy, Initial residual = 0.00291481, Final residual = 0.000200969, No Iterations 5
GAMG:  Solving for p, Initial residual = 0.00605324, Final residual = 0.000451716, No Iterations 2
time step continuity errors : sum local = 0.000987848, global = 0.000180294, cumulative = 0.0133562
smoothSolver:  Solving for omega, Initial residual = 0.000607546, Final residual = 5.96179e-05, No Iterations 3
smoothSolver:  Solving for k, Initial residual = 0.00387392, Final residual = 0.000335687, No Iterations 5
ExecutionTime = 1.01 s  ClockTime = 1 s

scalarTransport execute: age
smoothSolver:  Solving for age, Initial residual = 0.00544025, Final residual = 0.00048496, No Iterations 13

Time = 83

smoothSolver:  Solving for Ux, Initial residual = 0.00259894, Final residual = 0.000171044, No Iterations 5
smoothSolver:  Solving for Uy, Initial residual = 0.00272298, Final residual = 0.000185229, No Iterations 5
GAMG:  Solving for p, Initial residual = 0.00588795, Final residual = 0.000456296, No Iterations 2
time step continuity errors : sum local = 0.000997355, global = 0.000196601, cumulative = 0.0135528
smoothSolver:  Solving for omega, Initial residual = 0.000574873, Final residual = 3.3475e-05, No Iterations 4
smoothSolver:  Solving for k, Initial residual = 0.00360367, Final residual = 0.000317269, No Iterations 5
ExecutionTime = 1.02 s  ClockTime = 1 s

scalarTransport execute: age
smoothSolver:  Solving for age, Initial residual = 0.00520574, Final residual = 0.000485325, No Iterations 13

Time = 84

smoothSolver:  Solving for Ux, Initial residual = 0.00246651, Final residual = 0.000160924, No Iterations 5
smoothSolver:  Solving for Uy, Initial residual = 0.00256383, Final residual = 0.000169438, No Iterations 5
GAMG:  Solving for p, Initial residual = 0.00563086, Final residual = 0.000403178, No Iterations 2
time step continuity errors : sum local = 0.000878928, global = 0.000170864, cumulative = 0.0137237
smoothSolver:  Solving for omega, Initial residual = 0.000544123, Final residual = 3.1874e-05, No Iterations 4
smoothSolver:  Solving for k, Initial residual = 0.00335442, Final residual = 0.000300226, No Iterations 5
ExecutionTime = 1.03 s  ClockTime = 1 s

scalarTransport execute: age
smoothSolver:  Solving for age, Initial residual = 0.00497698, Final residual = 0.000485837, No Iterations 13

Time = 85

smoothSolver:  Solving for Ux, Initial residual = 0.00233696, Final residual = 0.00015218, No Iterations 5
smoothSolver:  Solving for Uy, Initial residual = 0.00240849, Final residual = 0.00015633, No Iterations 5
GAMG:  Solving for p, Initial residual = 0.00542473, Final residual = 0.000368188, No Iterations 2
time step continuity errors : sum local = 0.000801048, global = 0.000148248, cumulative = 0.0138719
smoothSolver:  Solving for omega, Initial residual = 0.000517146, Final residual = 3.05257e-05, No Iterations 4
smoothSolver:  Solving for k, Initial residual = 0.00313085, Final residual = 0.000284378, No Iterations 5
ExecutionTime = 1.04 s  ClockTime = 1 s

scalarTransport execute: age
smoothSolver:  Solving for age, Initial residual = 0.00477008, Final residual = 0.000428753, No Iterations 14

Time = 86

smoothSolver:  Solving for Ux, Initial residual = 0.00220185, Final residual = 0.000143612, No Iterations 5
smoothSolver:  Solving for Uy, Initial residual = 0.00224381, Final residual = 0.000142837, No Iterations 5
GAMG:  Solving for p, Initial residual = 0.00527654, Final residual = 0.000350303, No Iterations 2
time step continuity errors : sum local = 0.000761198, global = 0.000143564, cumulative = 0.0140155
smoothSolver:  Solving for omega, Initial residual = 0.000484207, Final residual = 2.93696e-05, No Iterations 4
smoothSolver:  Solving for k, Initial residual = 0.00292915, Final residual = 0.000269683, No Iterations 5
ExecutionTime = 1.05 s  ClockTime = 1 s

scalarTransport execute: age
smoothSolver:  Solving for age, Initial residual = 0.0045761, Final residual = 0.000427032, No Iterations 14

Time = 87

smoothSolver:  Solving for Ux, Initial residual = 0.00209558, Final residual = 0.000136596, No Iterations 5
smoothSolver:  Solving for Uy, Initial residual = 0.00209268, Final residual = 0.000207474, No Iterations 4
GAMG:  Solving for p, Initial residual = 0.00504874, Final residual = 0.000331698, No Iterations 2
time step continuity errors : sum local = 0.000719679, global = 0.000123828, cumulative = 0.0141393
smoothSolver:  Solving for omega, Initial residual = 0.000458183, Final residual = 2.82578e-05, No Iterations 4
smoothSolver:  Solving for k, Initial residual = 0.00274647, Final residual = 0.000256095, No Iterations 5
ExecutionTime = 1.07 s  ClockTime = 1 s

scalarTransport execute: age
smoothSolver:  Solving for age, Initial residual = 0.00439448, Final residual = 0.000424469, No Iterations 14

Time = 88

smoothSolver:  Solving for Ux, Initial residual = 0.00198065, Final residual = 0.000128878, No Iterations 5
smoothSolver:  Solving for Uy, Initial residual = 0.00196979, Final residual = 0.000194543, No Iterations 4
GAMG:  Solving for p, Initial residual = 0.00488825, Final residual = 0.000310553, No Iterations 2
time step continuity errors : sum local = 0.000673144, global = 0.00010649, cumulative = 0.0142458
smoothSolver:  Solving for omega, Initial residual = 0.000431557, Final residual = 2.72426e-05, No Iterations 4
smoothSolver:  Solving for k, Initial residual = 0.00258189, Final residual = 0.000243525, No Iterations 5
ExecutionTime = 1.08 s  ClockTime = 1 s

scalarTransport execute: age
smoothSolver:  Solving for age, Initial residual = 0.00423023, Final residual = 0.00042033, No Iterations 14

Time = 89

smoothSolver:  Solving for Ux, Initial residual = 0.0018859, Final residual = 0.000122743, No Iterations 5
smoothSolver:  Solving for Uy, Initial residual = 0.00183433, Final residual = 0.000180321, No Iterations 4
GAMG:  Solving for p, Initial residual = 0.00480889, Final residual = 0.000302991, No Iterations 2
time step continuity errors : sum local = 0.0006565, global = 9.84255e-05, cumulative = 0.0143442
smoothSolver:  Solving for omega, Initial residual = 0.000407326, Final residual = 2.63021e-05, No Iterations 4
smoothSolver:  Solving for k, Initial residual = 0.00243427, Final residual = 0.000232046, No Iterations 5
ExecutionTime = 1.09 s  ClockTime = 1 s

scalarTransport execute: age
smoothSolver:  Solving for age, Initial residual = 0.00408565, Final residual = 0.000363847, No Iterations 15

Time = 90

smoothSolver:  Solving for Ux, Initial residual = 0.0018025, Final residual = 0.00011745, No Iterations 5
smoothSolver:  Solving for Uy, Initial residual = 0.00170386, Final residual = 0.00016759, No Iterations 4
GAMG:  Solving for p, Initial residual = 0.00477619, Final residual = 0.000291626, No Iterations 2
time step continuity errors : sum local = 0.000631855, global = 8.8932e-05, cumulative = 0.0144332
smoothSolver:  Solving for omega, Initial residual = 0.000383549, Final residual = 2.54152e-05, No Iterations 4
smoothSolver:  Solving for k, Initial residual = 0.00229999, Final residual = 0.000221515, No Iterations 5
ExecutionTime = 1.1 s  ClockTime = 1 s

scalarTransport execute: age
smoothSolver:  Solving for age, Initial residual = 0.00396988, Final residual = 0.000354096, No Iterations 15

Time = 91

smoothSolver:  Solving for Ux, Initial residual = 0.00172477, Final residual = 0.000112797, No Iterations 5
smoothSolver:  Solving for Uy, Initial residual = 0.00158346, Final residual = 0.000156594, No Iterations 4
GAMG:  Solving for p, Initial residual = 0.00474687, Final residual = 0.000290403, No Iterations 2
time step continuity errors : sum local = 0.000629351, global = 8.12851e-05, cumulative = 0.0145144
smoothSolver:  Solving for omega, Initial residual = 0.000358833, Final residual = 2.45199e-05, No Iterations 4
smoothSolver:  Solving for k, Initial residual = 0.00218116, Final residual = 0.000211919, No Iterations 5
ExecutionTime = 1.11 s  ClockTime = 1 s

scalarTransport execute: age
smoothSolver:  Solving for age, Initial residual = 0.00386838, Final residual = 0.000343033, No Iterations 15

Time = 92

smoothSolver:  Solving for Ux, Initial residual = 0.00165364, Final residual = 0.000108492, No Iterations 5
smoothSolver:  Solving for Uy, Initial residual = 0.00148313, Final residual = 0.000147659, No Iterations 4
GAMG:  Solving for p, Initial residual = 0.00472069, Final residual = 0.000267534, No Iterations 2
time step continuity errors : sum local = 0.000580261, global = 7.2982e-05, cumulative = 0.0145874
smoothSolver:  Solving for omega, Initial residual = 0.000336963, Final residual = 2.36693e-05, No Iterations 4
smoothSolver:  Solving for k, Initial residual = 0.00207425, Final residual = 0.000203132, No Iterations 5
ExecutionTime = 1.12 s  ClockTime = 1 s

scalarTransport execute: age
smoothSolver:  Solving for age, Initial residual = 0.00378673, Final residual = 0.000377496, No Iterations 14

Time = 93

smoothSolver:  Solving for Ux, Initial residual = 0.00158799, Final residual = 0.000104428, No Iterations 5
smoothSolver:  Solving for Uy, Initial residual = 0.00139977, Final residual = 8.84662e-05, No Iterations 5
GAMG:  Solving for p, Initial residual = 0.0047245, Final residual = 0.000269227, No Iterations 2
time step continuity errors : sum local = 0.000584491, global = 6.88508e-05, cumulative = 0.0146563
smoothSolver:  Solving for omega, Initial residual = 0.000314044, Final residual = 2.28092e-05, No Iterations 4
smoothSolver:  Solving for k, Initial residual = 0.00197958, Final residual = 0.000195065, No Iterations 5
ExecutionTime = 1.13 s  ClockTime = 1 s

scalarTransport execute: age
smoothSolver:  Solving for age, Initial residual = 0.00371151, Final residual = 0.000366203, No Iterations 14

Time = 94

smoothSolver:  Solving for Ux, Initial residual = 0.00154049, Final residual = 0.00010153, No Iterations 5
smoothSolver:  Solving for Uy, Initial residual = 0.00131106, Final residual = 8.38549e-05, No Iterations 5
GAMG:  Solving for p, Initial residual = 0.00471049, Final residual = 0.000267208, No Iterations 2
time step continuity errors : sum local = 0.000580878, global = 6.31841e-05, cumulative = 0.0147195
smoothSolver:  Solving for omega, Initial residual = 0.000293971, Final residual = 2.18999e-05, No Iterations 4
smoothSolver:  Solving for k, Initial residual = 0.00189287, Final residual = 0.000187621, No Iterations 5
ExecutionTime = 1.15 s  ClockTime = 1 s

scalarTransport execute: age
smoothSolver:  Solving for age, Initial residual = 0.00365555, Final residual = 0.000355156, No Iterations 14

Time = 95

smoothSolver:  Solving for Ux, Initial residual = 0.00148906, Final residual = 9.82728e-05, No Iterations 5
smoothSolver:  Solving for Uy, Initial residual = 0.00124426, Final residual = 8.13833e-05, No Iterations 5
GAMG:  Solving for p, Initial residual = 0.00472545, Final residual = 0.000278132, No Iterations 2
time step continuity errors : sum local = 0.000605737, global = 5.53083e-05, cumulative = 0.0147748
smoothSolver:  Solving for omega, Initial residual = 0.000275479, Final residual = 2.11098e-05, No Iterations 4
smoothSolver:  Solving for k, Initial residual = 0.00181771, Final residual = 0.00018059, No Iterations 5
ExecutionTime = 1.16 s  ClockTime = 1 s

scalarTransport execute: age
smoothSolver:  Solving for age, Initial residual = 0.00359841, Final residual = 0.000344704, No Iterations 14

Time = 96

smoothSolver:  Solving for Ux, Initial residual = 0.00144126, Final residual = 9.52634e-05, No Iterations 5
[...]

Time = 595

smoothSolver:  Solving for Ux, Initial residual = 7.163e-07, Final residual = 4.34939e-08, No Iterations 5
smoothSolver:  Solving for Uy, Initial residual = 5.03512e-07, Final residual = 3.76632e-08, No Iterations 5
GAMG:  Solving for p, Initial residual = 1.62167e-06, Final residual = 9.01675e-08, No Iterations 3
time step continuity errors : sum local = 2.17986e-07, global = 8.89449e-09, cumulative = 0.0180976
smoothSolver:  Solving for omega, Initial residual = 9.15702e-08, Final residual = 8.34621e-09, No Iterations 3
smoothSolver:  Solving for k, Initial residual = 1.77809e-07, Final residual = 1.12033e-08, No Iterations 5
ExecutionTime = 6.99 s  ClockTime = 7 s

scalarTransport execute: age
smoothSolver:  Solving for age, Initial residual = 0.000354556, Final residual = 3.4397e-05, No Iterations 14

Time = 596

smoothSolver:  Solving for Ux, Initial residual = 6.88957e-07, Final residual = 6.78188e-08, No Iterations 4
smoothSolver:  Solving for Uy, Initial residual = 4.94679e-07, Final residual = 3.76882e-08, No Iterations 5
GAMG:  Solving for p, Initial residual = 1.5093e-06, Final residual = 1.38796e-07, No Iterations 2
time step continuity errors : sum local = 3.35547e-07, global = 1.7989e-08, cumulative = 0.0180977
smoothSolver:  Solving for omega, Initial residual = 9.02359e-08, Final residual = 8.28923e-09, No Iterations 3
smoothSolver:  Solving for k, Initial residual = 1.77512e-07, Final residual = 1.10001e-08, No Iterations 5
ExecutionTime = 7 s  ClockTime = 7 s

scalarTransport execute: age
smoothSolver:  Solving for age, Initial residual = 0.000353936, Final residual = 3.43378e-05, No Iterations 14

Time = 597

smoothSolver:  Solving for Ux, Initial residual = 6.88914e-07, Final residual = 4.18311e-08, No Iterations 5
smoothSolver:  Solving for Uy, Initial residual = 4.84372e-07, Final residual = 3.62629e-08, No Iterations 5
GAMG:  Solving for p, Initial residual = 1.5607e-06, Final residual = 8.67546e-08, No Iterations 3
time step continuity errors : sum local = 2.09735e-07, global = 8.58728e-09, cumulative = 0.0180977
smoothSolver:  Solving for omega, Initial residual = 8.8104e-08, Final residual = 8.03863e-09, No Iterations 3
smoothSolver:  Solving for k, Initial residual = 1.71549e-07, Final residual = 1.08048e-08, No Iterations 5
ExecutionTime = 7.01 s  ClockTime = 7 s

scalarTransport execute: age
smoothSolver:  Solving for age, Initial residual = 0.000353282, Final residual = 3.42741e-05, No Iterations 14

Time = 598

smoothSolver:  Solving for Ux, Initial residual = 6.62577e-07, Final residual = 6.52235e-08, No Iterations 4
smoothSolver:  Solving for Uy, Initial residual = 4.75896e-07, Final residual = 3.62926e-08, No Iterations 5
GAMG:  Solving for p, Initial residual = 1.45286e-06, Final residual = 1.3357e-07, No Iterations 2
time step continuity errors : sum local = 3.22915e-07, global = 1.7269e-08, cumulative = 0.0180977
smoothSolver:  Solving for omega, Initial residual = 8.67884e-08, Final residual = 7.98585e-09, No Iterations 3
smoothSolver:  Solving for k, Initial residual = 1.71233e-07, Final residual = 1.0609e-08, No Iterations 5
ExecutionTime = 7.02 s  ClockTime = 7 s

scalarTransport execute: age
smoothSolver:  Solving for age, Initial residual = 0.000352665, Final residual = 3.42153e-05, No Iterations 14

Time = 599

smoothSolver:  Solving for Ux, Initial residual = 6.62563e-07, Final residual = 4.02339e-08, No Iterations 5
smoothSolver:  Solving for Uy, Initial residual = 4.65901e-07, Final residual = 3.49098e-08, No Iterations 5
GAMG:  Solving for p, Initial residual = 1.50164e-06, Final residual = 8.3475e-08, No Iterations 3
time step continuity errors : sum local = 2.01806e-07, global = 8.28317e-09, cumulative = 0.0180977
smoothSolver:  Solving for omega, Initial residual = 8.47757e-08, Final residual = 7.74354e-09, No Iterations 3
smoothSolver:  Solving for k, Initial residual = 1.655e-07, Final residual = 1.04191e-08, No Iterations 5
ExecutionTime = 7.03 s  ClockTime = 7 s

scalarTransport execute: age
smoothSolver:  Solving for age, Initial residual = 0.000352015, Final residual = 3.41523e-05, No Iterations 14

Time = 600

smoothSolver:  Solving for Ux, Initial residual = 6.37202e-07, Final residual = 6.27329e-08, No Iterations 4
smoothSolver:  Solving for Uy, Initial residual = 4.57766e-07, Final residual = 3.49451e-08, No Iterations 5
GAMG:  Solving for p, Initial residual = 1.39827e-06, Final residual = 1.28509e-07, No Iterations 2
time step continuity errors : sum local = 3.1068e-07, global = 1.65755e-08, cumulative = 0.0180977
smoothSolver:  Solving for omega, Initial residual = 8.34808e-08, Final residual = 7.69516e-09, No Iterations 3
smoothSolver:  Solving for k, Initial residual = 1.65171e-07, Final residual = 1.02308e-08, No Iterations 5
ExecutionTime = 7.05 s  ClockTime = 7 s

scalarTransport execute: age
smoothSolver:  Solving for age, Initial residual = 0.000351401, Final residual = 3.40939e-05, No Iterations 14

Time = 601

smoothSolver:  Solving for Ux, Initial residual = 6.37212e-07, Final residual = 3.87001e-08, No Iterations 5
smoothSolver:  Solving for Uy, Initial residual = 4.48065e-07, Final residual = 3.36025e-08, No Iterations 5
GAMG:  Solving for p, Initial residual = 1.44447e-06, Final residual = 8.03201e-08, No Iterations 3
time step continuity errors : sum local = 1.9418e-07, global = 7.98038e-09, cumulative = 0.0180977
smoothSolver:  Solving for omega, Initial residual = 8.15845e-08, Final residual = 7.46081e-09, No Iterations 3
smoothSolver:  Solving for k, Initial residual = 1.59659e-07, Final residual = 1.00464e-08, No Iterations 5
ExecutionTime = 7.06 s  ClockTime = 7 s

scalarTransport execute: age
smoothSolver:  Solving for age, Initial residual = 0.000350755, Final residual = 3.40314e-05, No Iterations 14

Time = 602

smoothSolver:  Solving for Ux, Initial residual = 6.12786e-07, Final residual = 6.03413e-08, No Iterations 4
smoothSolver:  Solving for Uy, Initial residual = 4.40269e-07, Final residual = 3.36446e-08, No Iterations 5
GAMG:  Solving for p, Initial residual = 1.34553e-06, Final residual = 1.23612e-07, No Iterations 2
time step continuity errors : sum local = 2.9884e-07, global = 1.59089e-08, cumulative = 0.0180977
smoothSolver:  Solving for omega, Initial residual = 8.03107e-08, Final residual = 7.41653e-09, No Iterations 3
smoothSolver:  Solving for k, Initial residual = 1.59322e-07, Final residual = 9.86573e-09, No Iterations 5
ExecutionTime = 7.07 s  ClockTime = 7 s

scalarTransport execute: age
smoothSolver:  Solving for age, Initial residual = 0.000350145, Final residual = 3.39733e-05, No Iterations 14

Time = 603

smoothSolver:  Solving for Ux, Initial residual = 6.1282e-07, Final residual = 3.72269e-08, No Iterations 5
smoothSolver:  Solving for Uy, Initial residual = 4.30856e-07, Final residual = 3.234e-08, No Iterations 5
GAMG:  Solving for p, Initial residual = 1.38923e-06, Final residual = 7.72831e-08, No Iterations 3
time step continuity errors : sum local = 1.86838e-07, global = 7.67976e-09, cumulative = 0.0180977
smoothSolver:  Solving for omega, Initial residual = 7.85245e-08, Final residual = 7.18958e-09, No Iterations 3
smoothSolver:  Solving for k, Initial residual = 1.54018e-07, Final residual = 9.68656e-09, No Iterations 5
ExecutionTime = 7.08 s  ClockTime = 7 s

scalarTransport execute: age
smoothSolver:  Solving for age, Initial residual = 0.000349504, Final residual = 3.39112e-05, No Iterations 14

Time = 604

smoothSolver:  Solving for Ux, Initial residual = 5.89281e-07, Final residual = 5.80414e-08, No Iterations 4
smoothSolver:  Solving for Uy, Initial residual = 4.23407e-07, Final residual = 3.23897e-08, No Iterations 5
GAMG:  Solving for p, Initial residual = 1.29464e-06, Final residual = 1.18879e-07, No Iterations 2
time step continuity errors : sum local = 2.87399e-07, global = 1.52687e-08, cumulative = 0.0180978
smoothSolver:  Solving for omega, Initial residual = 7.7271e-08, Final residual = 7.14895e-09, No Iterations 3
smoothSolver:  Solving for k, Initial residual = 1.53677e-07, Final residual = 9.51339e-09, No Iterations 5
ExecutionTime = 7.09 s  ClockTime = 7 s

scalarTransport execute: age
smoothSolver:  Solving for age, Initial residual = 0.000348897, Final residual = 3.38532e-05, No Iterations 14

Time = 605

smoothSolver:  Solving for Ux, Initial residual = 5.89347e-07, Final residual = 3.58102e-08, No Iterations 5
smoothSolver:  Solving for Uy, Initial residual = 4.14266e-07, Final residual = 3.11222e-08, No Iterations 5
GAMG:  Solving for p, Initial residual = 1.33596e-06, Final residual = 7.42659e-08, No Iterations 3
time step continuity errors : sum local = 1.79543e-07, global = 7.43402e-09, cumulative = 0.0180978
smoothSolver:  Solving for omega, Initial residual = 7.558e-08, Final residual = 6.92845e-09, No Iterations 3
smoothSolver:  Solving for k, Initial residual = 1.48571e-07, Final residual = 9.33925e-09, No Iterations 5
ExecutionTime = 7.1 s  ClockTime = 7 s

scalarTransport execute: age
smoothSolver:  Solving for age, Initial residual = 0.000348262, Final residual = 3.37913e-05, No Iterations 14

Time = 606

smoothSolver:  Solving for Ux, Initial residual = 5.6667e-07, Final residual = 5.58292e-08, No Iterations 4
smoothSolver:  Solving for Uy, Initial residual = 4.07169e-07, Final residual = 3.11776e-08, No Iterations 5
GAMG:  Solving for p, Initial residual = 1.24547e-06, Final residual = 1.14299e-07, No Iterations 2
time step continuity errors : sum local = 2.76328e-07, global = 1.46518e-08, cumulative = 0.0180978
smoothSolver:  Solving for omega, Initial residual = 7.43515e-08, Final residual = 6.89122e-09, No Iterations 3
smoothSolver:  Solving for k, Initial residual = 1.48223e-07, Final residual = 9.17331e-09, No Iterations 5
ExecutionTime = 7.11 s  ClockTime = 7 s

scalarTransport execute: age
smoothSolver:  Solving for age, Initial residual = 0.000347659, Final residual = 3.37333e-05, No Iterations 14

Time = 607

smoothSolver:  Solving for Ux, Initial residual = 5.66773e-07, Final residual = 3.44479e-08, No Iterations 5
smoothSolver:  Solving for Uy, Initial residual = 3.98274e-07, Final residual = 2.99477e-08, No Iterations 5
GAMG:  Solving for p, Initial residual = 1.28475e-06, Final residual = 7.14556e-08, No Iterations 3
time step continuity errors : sum local = 1.7275e-07, global = 7.14221e-09, cumulative = 0.0180978
smoothSolver:  Solving for omega, Initial residual = 7.27631e-08, Final residual = 6.67705e-09, No Iterations 3
smoothSolver:  Solving for k, Initial residual = 1.43308e-07, Final residual = 9.00417e-09, No Iterations 5
ExecutionTime = 7.12 s  ClockTime = 7 s

scalarTransport execute: age
smoothSolver:  Solving for age, Initial residual = 0.00034703, Final residual = 3.36714e-05, No Iterations 14

Time = 608

smoothSolver:  Solving for Ux, Initial residual = 5.44852e-07, Final residual = 5.36928e-08, No Iterations 4
smoothSolver:  Solving for Uy, Initial residual = 3.9155e-07, Final residual = 3.00126e-08, No Iterations 5
GAMG:  Solving for p, Initial residual = 1.19835e-06, Final residual = 1.08672e-07, No Iterations 2
time step continuity errors : sum local = 2.62724e-07, global = 1.28927e-08, cumulative = 0.0180978
smoothSolver:  Solving for omega, Initial residual = 7.11216e-08, Final residual = 6.64406e-09, No Iterations 3
smoothSolver:  Solving for k, Initial residual = 1.4279e-07, Final residual = 8.84655e-09, No Iterations 5
ExecutionTime = 7.14 s  ClockTime = 7 s

scalarTransport execute: age
smoothSolver:  Solving for age, Initial residual = 0.000346428, Final residual = 3.36132e-05, No Iterations 14

Time = 609

smoothSolver:  Solving for Ux, Initial residual = 5.44896e-07, Final residual = 3.31239e-08, No Iterations 5
smoothSolver:  Solving for Uy, Initial residual = 3.82731e-07, Final residual = 2.88161e-08, No Iterations 5
GAMG:  Solving for p, Initial residual = 1.23009e-06, Final residual = 6.73277e-08, No Iterations 3
time step continuity errors : sum local = 1.6277e-07, global = 7.36742e-09, cumulative = 0.0180978
smoothSolver:  Solving for omega, Initial residual = 6.89928e-08, Final residual = 6.44099e-09, No Iterations 3
smoothSolver:  Solving for k, Initial residual = 1.38452e-07, Final residual = 8.68449e-09, No Iterations 5
ExecutionTime = 7.15 s  ClockTime = 7 s

scalarTransport execute: age
smoothSolver:  Solving for age, Initial residual = 0.000345806, Final residual = 3.35519e-05, No Iterations 14

Time = 610

smoothSolver:  Solving for Ux, Initial residual = 5.24085e-07, Final residual = 5.16754e-08, No Iterations 4
smoothSolver:  Solving for Uy, Initial residual = 3.77042e-07, Final residual = 2.89421e-08, No Iterations 5
GAMG:  Solving for p, Initial residual = 1.1545e-06, Final residual = 1.04872e-07, No Iterations 2
time step continuity errors : sum local = 2.53537e-07, global = 1.26313e-08, cumulative = 0.0180978
smoothSolver:  Solving for omega, Initial residual = 6.77549e-08, Final residual = 6.40249e-09, No Iterations 3
smoothSolver:  Solving for k, Initial residual = 1.3761e-07, Final residual = 8.531e-09, No Iterations 5
ExecutionTime = 7.16 s  ClockTime = 7 s

scalarTransport execute: age
smoothSolver:  Solving for age, Initial residual = 0.00034521, Final residual = 3.34939e-05, No Iterations 14

Time = 611

smoothSolver:  Solving for Ux, Initial residual = 5.24192e-07, Final residual = 3.18784e-08, No Iterations 5
smoothSolver:  Solving for Uy, Initial residual = 3.67846e-07, Final residual = 2.77274e-08, No Iterations 5
GAMG:  Solving for p, Initial residual = 1.184e-06, Final residual = 6.51011e-08, No Iterations 3
time step continuity errors : sum local = 1.57387e-07, global = 6.97856e-09, cumulative = 0.0180978
smoothSolver:  Solving for omega, Initial residual = 6.62473e-08, Final residual = 6.2075e-09, No Iterations 3
smoothSolver:  Solving for k, Initial residual = 1.33485e-07, Final residual = 8.37242e-09, No Iterations 5
ExecutionTime = 7.17 s  ClockTime = 7 s

scalarTransport execute: age
smoothSolver:  Solving for age, Initial residual = 0.000344593, Final residual = 3.34331e-05, No Iterations 14

Time = 612

smoothSolver:  Solving for Ux, Initial residual = 5.03824e-07, Final residual = 4.9679e-08, No Iterations 4
smoothSolver:  Solving for Uy, Initial residual = 3.62316e-07, Final residual = 2.784e-08, No Iterations 5
GAMG:  Solving for p, Initial residual = 1.11157e-06, Final residual = 1.00714e-07, No Iterations 2
time step continuity errors : sum local = 2.43485e-07, global = 1.21134e-08, cumulative = 0.0180978
smoothSolver:  Solving for omega, Initial residual = 6.53049e-08, Final residual = 6.171e-09, No Iterations 3
smoothSolver:  Solving for k, Initial residual = 1.32752e-07, Final residual = 8.22507e-09, No Iterations 5
ExecutionTime = 7.18 s  ClockTime = 7 s

scalarTransport execute: age
smoothSolver:  Solving for age, Initial residual = 0.000344, Final residual = 3.33755e-05, No Iterations 14

Time = 613

smoothSolver:  Solving for Ux, Initial residual = 5.03936e-07, Final residual = 3.06464e-08, No Iterations 5
smoothSolver:  Solving for Uy, Initial residual = 3.53543e-07, Final residual = 2.66741e-08, No Iterations 5
GAMG:  Solving for p, Initial residual = 1.13878e-06, Final residual = 6.2632e-08, No Iterations 3
time step continuity errors : sum local = 1.51418e-07, global = 6.68002e-09, cumulative = 0.0180978
smoothSolver:  Solving for omega, Initial residual = 6.38863e-08, Final residual = 5.98042e-09, No Iterations 3
smoothSolver:  Solving for k, Initial residual = 1.28759e-07, Final residual = 8.07134e-09, No Iterations 5
ExecutionTime = 7.19 s  ClockTime = 7 s

scalarTransport execute: age
smoothSolver:  Solving for age, Initial residual = 0.000343389, Final residual = 3.33152e-05, No Iterations 14

Time = 614

smoothSolver:  Solving for Ux, Initial residual = 4.84275e-07, Final residual = 4.77581e-08, No Iterations 4
smoothSolver:  Solving for Uy, Initial residual = 3.48449e-07, Final residual = 2.6799e-08, No Iterations 5
GAMG:  Solving for p, Initial residual = 1.06923e-06, Final residual = 9.68039e-08, No Iterations 2
time step continuity errors : sum local = 2.34032e-07, global = 1.16177e-08, cumulative = 0.0180978
smoothSolver:  Solving for omega, Initial residual = 6.28779e-08, Final residual = 5.94641e-09, No Iterations 3
smoothSolver:  Solving for k, Initial residual = 1.28027e-07, Final residual = 7.92962e-09, No Iterations 5
ExecutionTime = 7.2 s  ClockTime = 7 s

scalarTransport execute: age
smoothSolver:  Solving for age, Initial residual = 0.000342799, Final residual = 3.32581e-05, No Iterations 14

Time = 615

smoothSolver:  Solving for Ux, Initial residual = 4.84414e-07, Final residual = 2.94665e-08, No Iterations 5
smoothSolver:  Solving for Uy, Initial residual = 3.3991e-07, Final residual = 2.56652e-08, No Iterations 5
GAMG:  Solving for p, Initial residual = 1.09523e-06, Final residual = 6.02376e-08, No Iterations 3
time step continuity errors : sum local = 1.4563e-07, global = 6.42477e-09, cumulative = 0.0180979
smoothSolver:  Solving for omega, Initial residual = 6.14998e-08, Final residual = 5.762e-09, No Iterations 3
smoothSolver:  Solving for k, Initial residual = 1.24177e-07, Final residual = 7.78008e-09, No Iterations 5
ExecutionTime = 7.22 s  ClockTime = 7 s

scalarTransport execute: age
smoothSolver:  Solving for age, Initial residual = 0.000342192, Final residual = 3.31983e-05, No Iterations 14

Time = 616

smoothSolver:  Solving for Ux, Initial residual = 4.65477e-07, Final residual = 4.59104e-08, No Iterations 4
smoothSolver:  Solving for Uy, Initial residual = 3.35e-07, Final residual = 2.5788e-08, No Iterations 5
GAMG:  Solving for p, Initial residual = 1.02868e-06, Final residual = 9.3058e-08, No Iterations 2
time step continuity errors : sum local = 2.24976e-07, global = 1.11369e-08, cumulative = 0.0180979
smoothSolver:  Solving for omega, Initial residual = 6.05148e-08, Final residual = 5.7308e-09, No Iterations 3
smoothSolver:  Solving for k, Initial residual = 1.23466e-07, Final residual = 7.64398e-09, No Iterations 5
ExecutionTime = 7.23 s  ClockTime = 7 s

scalarTransport execute: age
smoothSolver:  Solving for age, Initial residual = 0.000341605, Final residual = 3.31415e-05, No Iterations 14

Time = 617

smoothSolver:  Solving for Ux, Initial residual = 4.65657e-07, Final residual = 2.83305e-08, No Iterations 5
smoothSolver:  Solving for Uy, Initial residual = 3.26658e-07, Final residual = 2.46863e-08, No Iterations 5
GAMG:  Solving for p, Initial residual = 1.05311e-06, Final residual = 5.79557e-08, No Iterations 3
time step continuity errors : sum local = 1.40113e-07, global = 6.16698e-09, cumulative = 0.0180979
smoothSolver:  Solving for omega, Initial residual = 5.91959e-08, Final residual = 5.55145e-09, No Iterations 3
smoothSolver:  Solving for k, Initial residual = 1.19756e-07, Final residual = 7.49876e-09, No Iterations 5
ExecutionTime = 7.24 s  ClockTime = 7 s

scalarTransport execute: age
smoothSolver:  Solving for age, Initial residual = 0.000341001, Final residual = 3.30821e-05, No Iterations 14

Time = 618

smoothSolver:  Solving for Ux, Initial residual = 4.4735e-07, Final residual = 4.41298e-08, No Iterations 4
smoothSolver:  Solving for Uy, Initial residual = 3.21968e-07, Final residual = 2.48104e-08, No Iterations 5
GAMG:  Solving for p, Initial residual = 9.89538e-07, Final residual = 8.94312e-08, No Iterations 2
time step continuity errors : sum local = 2.16208e-07, global = 1.06563e-08, cumulative = 0.0180979
smoothSolver:  Solving for omega, Initial residual = 5.8216e-08, Final residual = 5.52263e-09, No Iterations 3
smoothSolver:  Solving for k, Initial residual = 1.19059e-07, Final residual = 7.3684e-09, No Iterations 5
ExecutionTime = 7.25 s  ClockTime = 7 s


SIMPLE solution converged in 618 iterations

scalarTransport execute: age
smoothSolver:  Solving for age, Initial residual = 0.000340418, Final residual = 3.30255e-05, No Iterations 14

End

