/*---------------------------------------------------------------------------*\
| =========                 |                                                 |
| \\      /  F ield         | OpenFOAM: The Open Source CFD Toolbox           |
|  \\    /   O peration     | Version:  v2012                                 |
|   \\  /    A nd           | Website:  www.openfoam.com                      |
|    \\/     M anipulation  |                                                 |
\*---------------------------------------------------------------------------*/
Build  : _7bdb509494-20201222 OPENFOAM=2012
Arch   : "LSB;label=32;scalar=64"
Exec   : blockMesh
Date   : Feb 23 2023
Time   : 20:04:22
Host   : johnsDesktop
PID    : 12754
I/O    : uncollated
Case   : /home/john/of_runs/cases/dbl_0_35_8-00140_9
nProcs : 1
trapFpe: Floating point exception trapping enabled (FOAM_SIGFPE).
fileModificationChecking : Monitoring run-time modified files using timeStampMaster (fileModificationSkew 5, maxFileModificationPolls 20)
allowSystemOperations : Allowing user-supplied system call operations

// * * * * * * * * * * * * * * * * * * * * * * * * * * * * * * * * * * * * * //
Create time

Creating block mesh from "system/blockMeshDict"
Creating block edges
No non-planar block faces defined
Creating topology blocks
Creating topology patches

Creating block mesh topology

Check topology

	Basic statistics
		Number of internal faces : 15
		Number of boundary faces : 54
		Number of defined boundary faces : 54
		Number of undefined boundary faces : 0
	Checking patch -> block consistency

Creating block offsets
Creating merge list (topological search)...
Deleting polyMesh directory "constant/polyMesh"

Creating polyMesh from blockMesh
Creating patches
Creating cells
Creating points with scale 1
    Block 0 cell size :
        i : 0.02 .. 0.02
        j : 0.025 .. 0.025
        k : 0.01 .. 0.01

    Block 1 cell size :
        i : 0.02 .. 0.02
        j : 0.025 .. 0.025
        k : 0.01 .. 0.01

    Block 2 cell size :
        i : 0.02 .. 0.02
        j : 0.025 .. 0.025
        k : 0.01 .. 0.01

    Block 3 cell size :
        i : 0.019 .. 0.019
        j : 0.025 .. 0.025
        k : 0.01 .. 0.01

    Block 4 cell size :
        i : 0.019 .. 0.019
        j : 0.025 .. 0.025
        k : 0.01 .. 0.01

    Block 5 cell size :
        i : 0.0166667 .. 0.0166667
        j : 0.025 .. 0.025
        k : 0.01 .. 0.01

    Block 6 cell size :
        i : 0.019375 .. 0.019375
        j : 0.025 .. 0.025
        k : 0.01 .. 0.01

    Block 7 cell size :
        i : 0.019375 .. 0.019375
        j : 0.025 .. 0.025
        k : 0.01 .. 0.01

    Block 8 cell size :
        i : 0.0166667 .. 0.0166667
        j : 0.025 .. 0.025
        k : 0.01 .. 0.01

    Block 9 cell size :
        i : 0.019 .. 0.019
        j : 0.025 .. 0.025
        k : 0.01 .. 0.01

    Block 10 cell size :
        i : 0.019 .. 0.019
        j : 0.025 .. 0.025
        k : 0.01 .. 0.01

    Block 11 cell size :
        i : 0.02 .. 0.02
        j : 0.025 .. 0.025
        k : 0.01 .. 0.01

    Block 12 cell size :
        i : 0.02 .. 0.02
        j : 0.025 .. 0.025
        k : 0.01 .. 0.01

    Block 13 cell size :
        i : 0.02 .. 0.02
        j : 0.025 .. 0.025
        k : 0.01 .. 0.01


There are no merge patch pairs

Writing polyMesh with 0 cellZones
----------------
Mesh Information
----------------
  boundingBox: (0 0 -0.01) (3 1.5 0)
  nPoints: 13642
  nCells: 6556
  nFaces: 26488
  nInternalFaces: 12848
----------------
Patches
----------------
  patch 0 (start: 12848 size: 10) name: inlet
  patch 1 (start: 12858 size: 10) name: outlet
  patch 2 (start: 12868 size: 446) name: walls
  patch 3 (start: 13314 size: 62) name: baffle
  patch 4 (start: 13376 size: 6556) name: front
  patch 5 (start: 19932 size: 6556) name: back

End

