/*---------------------------------------------------------------------------*\
| =========                 |                                                 |
| \\      /  F ield         | OpenFOAM: The Open Source CFD Toolbox           |
|  \\    /   O peration     | Version:  v2012                                 |
|   \\  /    A nd           | Website:  www.openfoam.com                      |
|    \\/     M anipulation  |                                                 |
\*---------------------------------------------------------------------------*/
Build  : _7bdb509494-20201222 OPENFOAM=2012
Arch   : "LSB;label=32;scalar=64"
Exec   : simpleFoam
Date   : Feb 23 2023
Time   : 20:04:23
Host   : johnsDesktop
PID    : 12756
I/O    : uncollated
Case   : /home/john/of_runs/cases/dbl_0_35_8-00140_9
nProcs : 1
trapFpe: Floating point exception trapping enabled (FOAM_SIGFPE).
fileModificationChecking : Monitoring run-time modified files using timeStampMaster (fileModificationSkew 5, maxFileModificationPolls 20)
allowSystemOperations : Allowing user-supplied system call operations

// * * * * * * * * * * * * * * * * * * * * * * * * * * * * * * * * * * * * * //
Create time

Create mesh for time = 0


SIMPLE: convergence criteria
    field p	 tolerance 1e-06
    field U	 tolerance 1e-06
    field "(k|epsilon|omega|f|v2|age)"	 tolerance 1e-05

Reading field p

Reading field U

Reading/calculating face flux field phi

Selecting incompressible transport model Newtonian
Selecting turbulence model type RAS
Selecting RAS turbulence model kOmegaSST
Selecting patchDistMethod meshWave
RAS
{
    RASModel        kOmegaSST;
    turbulence      on;
    printCoeffs     on;
    alphaK1         0.85;
    alphaK2         1;
    alphaOmega1     0.5;
    alphaOmega2     0.856;
    gamma1          0.555556;
    gamma2          0.44;
    beta1           0.075;
    beta2           0.0828;
    betaStar        0.09;
    a1              0.31;
    b1              1;
    c1              10;
    F3              false;
    decayControl    false;
    kInf            0;
    omegaInf        0;
}

No MRF models present

No finite volume options present

Starting time loop

Selecting finite volume options type scalarSemiImplicitSource
    Source: unitySource
    - selecting all cells
    - selected 6556 cell(s) with volume 0.03165
Time = 1

smoothSolver:  Solving for Ux, Initial residual = 0, Final residual = 0, No Iterations 0
smoothSolver:  Solving for Uy, Initial residual = 1, Final residual = 0.0705687, No Iterations 2
GAMG:  Solving for p, Initial residual = 1, Final residual = 0.0589712, No Iterations 6
time step continuity errors : sum local = 0.00372646, global = -0.0010347, cumulative = -0.0010347
smoothSolver:  Solving for omega, Initial residual = 0.266965, Final residual = 0.0126027, No Iterations 3
smoothSolver:  Solving for k, Initial residual = 1, Final residual = 0.0803425, No Iterations 3
ExecutionTime = 0.05 s  ClockTime = 0 s

scalarTransport execute: age
smoothSolver:  Solving for age, Initial residual = 1, Final residual = 0.0837145, No Iterations 6

Time = 2

smoothSolver:  Solving for Ux, Initial residual = 0.585836, Final residual = 0.0500284, No Iterations 6
smoothSolver:  Solving for Uy, Initial residual = 0.28132, Final residual = 0.0192911, No Iterations 6
GAMG:  Solving for p, Initial residual = 0.050165, Final residual = 0.00471475, No Iterations 3
time step continuity errors : sum local = 0.0626097, global = 0.00354142, cumulative = 0.00250672
smoothSolver:  Solving for omega, Initial residual = 0.263619, Final residual = 0.0249451, No Iterations 3
smoothSolver:  Solving for k, Initial residual = 0.604604, Final residual = 0.0560234, No Iterations 4
ExecutionTime = 0.07 s  ClockTime = 0 s

scalarTransport execute: age
smoothSolver:  Solving for age, Initial residual = 0.589006, Final residual = 0.0584794, No Iterations 7

Time = 3

smoothSolver:  Solving for Ux, Initial residual = 0.224804, Final residual = 0.0151605, No Iterations 6
smoothSolver:  Solving for Uy, Initial residual = 0.106664, Final residual = 0.00956401, No Iterations 5
GAMG:  Solving for p, Initial residual = 0.0531542, Final residual = 0.00342492, No Iterations 3
time step continuity errors : sum local = 0.0197055, global = 0.00144188, cumulative = 0.0039486
smoothSolver:  Solving for omega, Initial residual = 0.265186, Final residual = 0.0253503, No Iterations 4
smoothSolver:  Solving for k, Initial residual = 0.510751, Final residual = 0.038012, No Iterations 5
ExecutionTime = 0.08 s  ClockTime = 0 s

scalarTransport execute: age
smoothSolver:  Solving for age, Initial residual = 0.406922, Final residual = 0.0391012, No Iterations 9

Time = 4

smoothSolver:  Solving for Ux, Initial residual = 0.112954, Final residual = 0.00969415, No Iterations 4
smoothSolver:  Solving for Uy, Initial residual = 0.0527096, Final residual = 0.00470322, No Iterations 4
GAMG:  Solving for p, Initial residual = 0.0862079, Final residual = 0.00385337, No Iterations 3
time step continuity errors : sum local = 0.0107682, global = 0.000505922, cumulative = 0.00445452
smoothSolver:  Solving for omega, Initial residual = 0.151522, Final residual = 0.0103563, No Iterations 5
smoothSolver:  Solving for k, Initial residual = 0.43988, Final residual = 0.0368945, No Iterations 5
ExecutionTime = 0.1 s  ClockTime = 0 s

scalarTransport execute: age
smoothSolver:  Solving for age, Initial residual = 0.293454, Final residual = 0.0292042, No Iterations 8

Time = 5

smoothSolver:  Solving for Ux, Initial residual = 0.0696594, Final residual = 0.00592933, No Iterations 5
smoothSolver:  Solving for Uy, Initial residual = 0.0311537, Final residual = 0.00208839, No Iterations 5
GAMG:  Solving for p, Initial residual = 0.0769806, Final residual = 0.00327747, No Iterations 2
time step continuity errors : sum local = 0.00812829, global = -3.3475e-05, cumulative = 0.00442104
smoothSolver:  Solving for omega, Initial residual = 0.105413, Final residual = 0.00790865, No Iterations 5
smoothSolver:  Solving for k, Initial residual = 0.343287, Final residual = 0.0311379, No Iterations 5
ExecutionTime = 0.11 s  ClockTime = 0 s

scalarTransport execute: age
smoothSolver:  Solving for age, Initial residual = 0.223046, Final residual = 0.0214926, No Iterations 9

Time = 6

smoothSolver:  Solving for Ux, Initial residual = 0.0495955, Final residual = 0.00338124, No Iterations 6
smoothSolver:  Solving for Uy, Initial residual = 0.0238123, Final residual = 0.00184254, No Iterations 5
GAMG:  Solving for p, Initial residual = 0.0613741, Final residual = 0.00334179, No Iterations 2
time step continuity errors : sum local = 0.0084511, global = -0.00047317, cumulative = 0.00394787
smoothSolver:  Solving for omega, Initial residual = 0.083017, Final residual = 0.00666206, No Iterations 5
smoothSolver:  Solving for k, Initial residual = 0.274791, Final residual = 0.026461, No Iterations 5
ExecutionTime = 0.12 s  ClockTime = 0 s

scalarTransport execute: age
smoothSolver:  Solving for age, Initial residual = 0.178575, Final residual = 0.0164926, No Iterations 10

Time = 7

smoothSolver:  Solving for Ux, Initial residual = 0.0403425, Final residual = 0.00271183, No Iterations 6
smoothSolver:  Solving for Uy, Initial residual = 0.0202584, Final residual = 0.00167831, No Iterations 5
GAMG:  Solving for p, Initial residual = 0.0501087, Final residual = 0.0038472, No Iterations 2
time step continuity errors : sum local = 0.0099799, global = -0.000840826, cumulative = 0.00310705
smoothSolver:  Solving for omega, Initial residual = 0.0637087, Final residual = 0.0054747, No Iterations 5
smoothSolver:  Solving for k, Initial residual = 0.227644, Final residual = 0.0144696, No Iterations 6
ExecutionTime = 0.14 s  ClockTime = 0 s

scalarTransport execute: age
smoothSolver:  Solving for age, Initial residual = 0.148391, Final residual = 0.0147792, No Iterations 10

Time = 8

smoothSolver:  Solving for Ux, Initial residual = 0.032262, Final residual = 0.00297051, No Iterations 5
smoothSolver:  Solving for Uy, Initial residual = 0.0182321, Final residual = 0.00157391, No Iterations 5
GAMG:  Solving for p, Initial residual = 0.0403393, Final residual = 0.00307231, No Iterations 2
time step continuity errors : sum local = 0.00842049, global = -0.000654243, cumulative = 0.00245281
smoothSolver:  Solving for omega, Initial residual = 0.0514563, Final residual = 0.00457942, No Iterations 5
smoothSolver:  Solving for k, Initial residual = 0.193999, Final residual = 0.012783, No Iterations 6
ExecutionTime = 0.15 s  ClockTime = 0 s

scalarTransport execute: age
smoothSolver:  Solving for age, Initial residual = 0.128936, Final residual = 0.0113403, No Iterations 11

Time = 9

smoothSolver:  Solving for Ux, Initial residual = 0.0305762, Final residual = 0.00289092, No Iterations 5
smoothSolver:  Solving for Uy, Initial residual = 0.0168004, Final residual = 0.00144693, No Iterations 5
GAMG:  Solving for p, Initial residual = 0.0324079, Final residual = 0.00110577, No Iterations 2
time step continuity errors : sum local = 0.00322299, global = -0.000644067, cumulative = 0.00180874
smoothSolver:  Solving for omega, Initial residual = 0.0428682, Final residual = 0.00392711, No Iterations 5
smoothSolver:  Solving for k, Initial residual = 0.168402, Final residual = 0.0114407, No Iterations 6
ExecutionTime = 0.16 s  ClockTime = 0 s

scalarTransport execute: age
smoothSolver:  Solving for age, Initial residual = 0.112514, Final residual = 0.0102176, No Iterations 11

Time = 10

smoothSolver:  Solving for Ux, Initial residual = 0.0271059, Final residual = 0.00268153, No Iterations 5
smoothSolver:  Solving for Uy, Initial residual = 0.0157377, Final residual = 0.00140564, No Iterations 5
GAMG:  Solving for p, Initial residual = 0.0272384, Final residual = 0.000777624, No Iterations 2
time step continuity errors : sum local = 0.00229974, global = -0.000471206, cumulative = 0.00133753
smoothSolver:  Solving for omega, Initial residual = 0.0359279, Final residual = 0.0033872, No Iterations 5
smoothSolver:  Solving for k, Initial residual = 0.14843, Final residual = 0.0103377, No Iterations 6
ExecutionTime = 0.17 s  ClockTime = 0 s

scalarTransport execute: age
smoothSolver:  Solving for age, Initial residual = 0.0978568, Final residual = 0.00906643, No Iterations 11

Time = 11

smoothSolver:  Solving for Ux, Initial residual = 0.0251686, Final residual = 0.00166793, No Iterations 6
smoothSolver:  Solving for Uy, Initial residual = 0.0148692, Final residual = 0.00137565, No Iterations 5
GAMG:  Solving for p, Initial residual = 0.0239345, Final residual = 0.000854066, No Iterations 2
time step continuity errors : sum local = 0.00255415, global = -0.00032641, cumulative = 0.00101112
smoothSolver:  Solving for omega, Initial residual = 0.0305335, Final residual = 0.00294293, No Iterations 5
smoothSolver:  Solving for k, Initial residual = 0.132459, Final residual = 0.00941442, No Iterations 6
ExecutionTime = 0.19 s  ClockTime = 0 s

scalarTransport execute: age
smoothSolver:  Solving for age, Initial residual = 0.0854388, Final residual = 0.00814158, No Iterations 11

Time = 12

smoothSolver:  Solving for Ux, Initial residual = 0.0235974, Final residual = 0.0015845, No Iterations 6
smoothSolver:  Solving for Uy, Initial residual = 0.0142859, Final residual = 0.0013536, No Iterations 5
GAMG:  Solving for p, Initial residual = 0.0218006, Final residual = 0.000829903, No Iterations 2
time step continuity errors : sum local = 0.00250395, global = -0.000167155, cumulative = 0.000843968
smoothSolver:  Solving for omega, Initial residual = 0.0262642, Final residual = 0.00257884, No Iterations 5
smoothSolver:  Solving for k, Initial residual = 0.11941, Final residual = 0.00863234, No Iterations 6
ExecutionTime = 0.2 s  ClockTime = 0 s

scalarTransport execute: age
smoothSolver:  Solving for age, Initial residual = 0.0743548, Final residual = 0.00735048, No Iterations 11

Time = 13

smoothSolver:  Solving for Ux, Initial residual = 0.0223118, Final residual = 0.00150851, No Iterations 6
smoothSolver:  Solving for Uy, Initial residual = 0.0138228, Final residual = 0.0013358, No Iterations 5
GAMG:  Solving for p, Initial residual = 0.0203599, Final residual = 0.000764768, No Iterations 2
time step continuity errors : sum local = 0.00232016, global = 7.74468e-06, cumulative = 0.000851713
smoothSolver:  Solving for omega, Initial residual = 0.0228257, Final residual = 0.00227546, No Iterations 5
smoothSolver:  Solving for k, Initial residual = 0.108586, Final residual = 0.00796219, No Iterations 6
ExecutionTime = 0.21 s  ClockTime = 0 s

scalarTransport execute: age
smoothSolver:  Solving for age, Initial residual = 0.0652988, Final residual = 0.00565614, No Iterations 12

Time = 14

smoothSolver:  Solving for Ux, Initial residual = 0.0211054, Final residual = 0.00143389, No Iterations 6
smoothSolver:  Solving for Uy, Initial residual = 0.0134313, Final residual = 0.00132017, No Iterations 5
GAMG:  Solving for p, Initial residual = 0.0192798, Final residual = 0.000729389, No Iterations 2
time step continuity errors : sum local = 0.00221287, global = 0.000163527, cumulative = 0.00101524
smoothSolver:  Solving for omega, Initial residual = 0.0200304, Final residual = 0.00129215, No Iterations 6
smoothSolver:  Solving for k, Initial residual = 0.0992287, Final residual = 0.00736721, No Iterations 6
ExecutionTime = 0.22 s  ClockTime = 0 s

scalarTransport execute: age
smoothSolver:  Solving for age, Initial residual = 0.0563952, Final residual = 0.00508165, No Iterations 12

Time = 15

smoothSolver:  Solving for Ux, Initial residual = 0.0199327, Final residual = 0.0013567, No Iterations 6
smoothSolver:  Solving for Uy, Initial residual = 0.0131234, Final residual = 0.00130173, No Iterations 5
GAMG:  Solving for p, Initial residual = 0.0183384, Final residual = 0.000707773, No Iterations 2
time step continuity errors : sum local = 0.00214189, global = 0.000280188, cumulative = 0.00129543
smoothSolver:  Solving for omega, Initial residual = 0.0175705, Final residual = 0.00114823, No Iterations 6
smoothSolver:  Solving for k, Initial residual = 0.0911491, Final residual = 0.00684294, No Iterations 6
ExecutionTime = 0.24 s  ClockTime = 0 s

scalarTransport execute: age
smoothSolver:  Solving for age, Initial residual = 0.049261, Final residual = 0.00457616, No Iterations 12

Time = 16

smoothSolver:  Solving for Ux, Initial residual = 0.0188595, Final residual = 0.00128116, No Iterations 6
smoothSolver:  Solving for Uy, Initial residual = 0.0128319, Final residual = 0.00128159, No Iterations 5
GAMG:  Solving for p, Initial residual = 0.0176229, Final residual = 0.000709827, No Iterations 2
time step continuity errors : sum local = 0.00213566, global = 0.000345387, cumulative = 0.00164082
smoothSolver:  Solving for omega, Initial residual = 0.015531, Final residual = 0.00102654, No Iterations 6
smoothSolver:  Solving for k, Initial residual = 0.0842548, Final residual = 0.006385, No Iterations 6
ExecutionTime = 0.25 s  ClockTime = 0 s

scalarTransport execute: age
smoothSolver:  Solving for age, Initial residual = 0.0432056, Final residual = 0.0041025, No Iterations 12

Time = 17

smoothSolver:  Solving for Ux, Initial residual = 0.0178671, Final residual = 0.00121303, No Iterations 6
smoothSolver:  Solving for Uy, Initial residual = 0.0125997, Final residual = 0.000824562, No Iterations 6
GAMG:  Solving for p, Initial residual = 0.0170155, Final residual = 0.000703902, No Iterations 2
time step continuity errors : sum local = 0.00210102, global = 0.000371405, cumulative = 0.00201222
smoothSolver:  Solving for omega, Initial residual = 0.0138352, Final residual = 0.000922716, No Iterations 6
smoothSolver:  Solving for k, Initial residual = 0.0783, Final residual = 0.00598153, No Iterations 6
ExecutionTime = 0.26 s  ClockTime = 0 s

scalarTransport execute: age
smoothSolver:  Solving for age, Initial residual = 0.0382392, Final residual = 0.00365785, No Iterations 12

Time = 18

smoothSolver:  Solving for Ux, Initial residual = 0.0170471, Final residual = 0.00115846, No Iterations 6
smoothSolver:  Solving for Uy, Initial residual = 0.0123081, Final residual = 0.00123062, No Iterations 5
GAMG:  Solving for p, Initial residual = 0.0164182, Final residual = 0.000675135, No Iterations 2
time step continuity errors : sum local = 0.00199654, global = 0.000364566, cumulative = 0.00237679
smoothSolver:  Solving for omega, Initial residual = 0.0124004, Final residual = 0.00083329, No Iterations 6
smoothSolver:  Solving for k, Initial residual = 0.0731037, Final residual = 0.00562345, No Iterations 6
ExecutionTime = 0.27 s  ClockTime = 0 s

scalarTransport execute: age
smoothSolver:  Solving for age, Initial residual = 0.0337684, Final residual = 0.00324453, No Iterations 12

Time = 19

smoothSolver:  Solving for Ux, Initial residual = 0.0162089, Final residual = 0.0011031, No Iterations 6
smoothSolver:  Solving for Uy, Initial residual = 0.0121304, Final residual = 0.00079309, No Iterations 6
GAMG:  Solving for p, Initial residual = 0.0158982, Final residual = 0.00064682, No Iterations 2
time step continuity errors : sum local = 0.00189392, global = 0.000355591, cumulative = 0.00273238
smoothSolver:  Solving for omega, Initial residual = 0.0111898, Final residual = 0.000755976, No Iterations 6
smoothSolver:  Solving for k, Initial residual = 0.0685248, Final residual = 0.00530316, No Iterations 6
ExecutionTime = 0.29 s  ClockTime = 0 s

scalarTransport execute: age
smoothSolver:  Solving for age, Initial residual = 0.03004, Final residual = 0.00286649, No Iterations 12

Time = 20

smoothSolver:  Solving for Ux, Initial residual = 0.015537, Final residual = 0.00105995, No Iterations 6
smoothSolver:  Solving for Uy, Initial residual = 0.0118653, Final residual = 0.000774803, No Iterations 6
GAMG:  Solving for p, Initial residual = 0.0153228, Final residual = 0.000614228, No Iterations 2
time step continuity errors : sum local = 0.00177999, global = 0.000342853, cumulative = 0.00307523
smoothSolver:  Solving for omega, Initial residual = 0.0101541, Final residual = 0.000688825, No Iterations 6
smoothSolver:  Solving for k, Initial residual = 0.0644631, Final residual = 0.00501518, No Iterations 6
ExecutionTime = 0.3 s  ClockTime = 0 s

scalarTransport execute: age
smoothSolver:  Solving for age, Initial residual = 0.0267639, Final residual = 0.0025078, No Iterations 12

Time = 21

smoothSolver:  Solving for Ux, Initial residual = 0.0149387, Final residual = 0.00102181, No Iterations 6
smoothSolver:  Solving for Uy, Initial residual = 0.0115894, Final residual = 0.00075703, No Iterations 6
GAMG:  Solving for p, Initial residual = 0.0147946, Final residual = 0.000581859, No Iterations 2
time step continuity errors : sum local = 0.00166906, global = 0.000326215, cumulative = 0.00340145
smoothSolver:  Solving for omega, Initial residual = 0.00926144, Final residual = 0.000630122, No Iterations 6
smoothSolver:  Solving for k, Initial residual = 0.0608289, Final residual = 0.0047545, No Iterations 6
ExecutionTime = 0.31 s  ClockTime = 0 s

scalarTransport execute: age
smoothSolver:  Solving for age, Initial residual = 0.0239348, Final residual = 0.00216807, No Iterations 12

Time = 22

smoothSolver:  Solving for Ux, Initial residual = 0.0143974, Final residual = 0.000987078, No Iterations 6
smoothSolver:  Solving for Uy, Initial residual = 0.0113103, Final residual = 0.000739913, No Iterations 6
GAMG:  Solving for p, Initial residual = 0.0142193, Final residual = 0.000554512, No Iterations 2
time step continuity errors : sum local = 0.00157427, global = 0.000309313, cumulative = 0.00371076
smoothSolver:  Solving for omega, Initial residual = 0.00847983, Final residual = 0.000578519, No Iterations 6
smoothSolver:  Solving for k, Initial residual = 0.0575595, Final residual = 0.00451747, No Iterations 6
ExecutionTime = 0.32 s  ClockTime = 0 s

scalarTransport execute: age
smoothSolver:  Solving for age, Initial residual = 0.0214802, Final residual = 0.00184981, No Iterations 12

Time = 23

smoothSolver:  Solving for Ux, Initial residual = 0.0139171, Final residual = 0.000955056, No Iterations 6
smoothSolver:  Solving for Uy, Initial residual = 0.0110176, Final residual = 0.000722993, No Iterations 6
GAMG:  Solving for p, Initial residual = 0.0135907, Final residual = 0.000531575, No Iterations 2
time step continuity errors : sum local = 0.00149467, global = 0.000293793, cumulative = 0.00400455
smoothSolver:  Solving for omega, Initial residual = 0.00779632, Final residual = 0.000532914, No Iterations 6
smoothSolver:  Solving for k, Initial residual = 0.0546052, Final residual = 0.00430122, No Iterations 6
ExecutionTime = 0.34 s  ClockTime = 0 s

scalarTransport execute: age
smoothSolver:  Solving for age, Initial residual = 0.0193648, Final residual = 0.00186651, No Iterations 11

Time = 24

smoothSolver:  Solving for Ux, Initial residual = 0.0134745, Final residual = 0.000926515, No Iterations 6
smoothSolver:  Solving for Uy, Initial residual = 0.0107054, Final residual = 0.000705467, No Iterations 6
GAMG:  Solving for p, Initial residual = 0.0129343, Final residual = 0.000511092, No Iterations 2
time step continuity errors : sum local = 0.00142484, global = 0.000280541, cumulative = 0.00428509
smoothSolver:  Solving for omega, Initial residual = 0.00719106, Final residual = 0.000492402, No Iterations 6
smoothSolver:  Solving for k, Initial residual = 0.0519195, Final residual = 0.00410293, No Iterations 6
ExecutionTime = 0.35 s  ClockTime = 0 s

scalarTransport execute: age
smoothSolver:  Solving for age, Initial residual = 0.0175143, Final residual = 0.00158701, No Iterations 11

Time = 25

smoothSolver:  Solving for Ux, Initial residual = 0.0130676, Final residual = 0.000901084, No Iterations 6
smoothSolver:  Solving for Uy, Initial residual = 0.010393, Final residual = 0.000687573, No Iterations 6
GAMG:  Solving for p, Initial residual = 0.012268, Final residual = 0.000491649, No Iterations 2
time step continuity errors : sum local = 0.00136012, global = 0.000269402, cumulative = 0.00455449
smoothSolver:  Solving for omega, Initial residual = 0.00665132, Final residual = 0.000456235, No Iterations 6
smoothSolver:  Solving for k, Initial residual = 0.0494643, Final residual = 0.00392017, No Iterations 6
ExecutionTime = 0.36 s  ClockTime = 0 s

scalarTransport execute: age
smoothSolver:  Solving for age, Initial residual = 0.015976, Final residual = 0.00134606, No Iterations 11

Time = 26

smoothSolver:  Solving for Ux, Initial residual = 0.0127154, Final residual = 0.000879037, No Iterations 6
smoothSolver:  Solving for Uy, Initial residual = 0.0100764, Final residual = 0.000668762, No Iterations 6
GAMG:  Solving for p, Initial residual = 0.0115999, Final residual = 0.000471821, No Iterations 2
time step continuity errors : sum local = 0.00129571, global = 0.00025965, cumulative = 0.00481414
smoothSolver:  Solving for omega, Initial residual = 0.00617229, Final residual = 0.000423844, No Iterations 6
smoothSolver:  Solving for k, Initial residual = 0.0472124, Final residual = 0.00375121, No Iterations 6
ExecutionTime = 0.38 s  ClockTime = 0 s

scalarTransport execute: age
smoothSolver:  Solving for age, Initial residual = 0.0146543, Final residual = 0.00137658, No Iterations 10

Time = 27

smoothSolver:  Solving for Ux, Initial residual = 0.0124042, Final residual = 0.000860413, No Iterations 6
smoothSolver:  Solving for Uy, Initial residual = 0.00977892, Final residual = 0.000649783, No Iterations 6
GAMG:  Solving for p, Initial residual = 0.0110056, Final residual = 0.000450688, No Iterations 2
time step continuity errors : sum local = 0.00122945, global = 0.000250629, cumulative = 0.00506477
smoothSolver:  Solving for omega, Initial residual = 0.00574409, Final residual = 0.000394733, No Iterations 6
smoothSolver:  Solving for k, Initial residual = 0.0451334, Final residual = 0.00359418, No Iterations 6
ExecutionTime = 0.39 s  ClockTime = 0 s

scalarTransport execute: age
smoothSolver:  Solving for age, Initial residual = 0.0136233, Final residual = 0.0012228, No Iterations 10

Time = 28

smoothSolver:  Solving for Ux, Initial residual = 0.0121281, Final residual = 0.000844835, No Iterations 6
smoothSolver:  Solving for Uy, Initial residual = 0.00949551, Final residual = 0.000630428, No Iterations 6
GAMG:  Solving for p, Initial residual = 0.0107954, Final residual = 0.000429842, No Iterations 2
time step continuity errors : sum local = 0.00116605, global = 0.000242261, cumulative = 0.00530703
smoothSolver:  Solving for omega, Initial residual = 0.00537027, Final residual = 0.000368281, No Iterations 6
smoothSolver:  Solving for k, Initial residual = 0.0432118, Final residual = 0.00344786, No Iterations 6
ExecutionTime = 0.4 s  ClockTime = 0 s

scalarTransport execute: age
smoothSolver:  Solving for age, Initial residual = 0.0128474, Final residual = 0.00110976, No Iterations 10

Time = 29

smoothSolver:  Solving for Ux, Initial residual = 0.0118844, Final residual = 0.000832597, No Iterations 6
smoothSolver:  Solving for Uy, Initial residual = 0.00923789, Final residual = 0.000610624, No Iterations 6
GAMG:  Solving for p, Initial residual = 0.0107962, Final residual = 0.000410743, No Iterations 2
time step continuity errors : sum local = 0.00110869, global = 0.000234981, cumulative = 0.00554202
smoothSolver:  Solving for omega, Initial residual = 0.00502699, Final residual = 0.000344576, No Iterations 6
smoothSolver:  Solving for k, Initial residual = 0.0414177, Final residual = 0.00331063, No Iterations 6
ExecutionTime = 0.41 s  ClockTime = 0 s

scalarTransport execute: age
smoothSolver:  Solving for age, Initial residual = 0.0121939, Final residual = 0.00103034, No Iterations 10

Time = 30

smoothSolver:  Solving for Ux, Initial residual = 0.0117085, Final residual = 0.000823396, No Iterations 6
smoothSolver:  Solving for Uy, Initial residual = 0.00898656, Final residual = 0.000590713, No Iterations 6
GAMG:  Solving for p, Initial residual = 0.0109637, Final residual = 0.000400367, No Iterations 2
time step continuity errors : sum local = 0.0010764, global = 0.000229201, cumulative = 0.00577122
smoothSolver:  Solving for omega, Initial residual = 0.00472248, Final residual = 0.000323096, No Iterations 6
smoothSolver:  Solving for k, Initial residual = 0.0397419, Final residual = 0.00318168, No Iterations 6
ExecutionTime = 0.43 s  ClockTime = 0 s

scalarTransport execute: age
smoothSolver:  Solving for age, Initial residual = 0.0117121, Final residual = 0.00116932, No Iterations 9

Time = 31

smoothSolver:  Solving for Ux, Initial residual = 0.011604, Final residual = 0.000817183, No Iterations 6
smoothSolver:  Solving for Uy, Initial residual = 0.00872669, Final residual = 0.000570354, No Iterations 6
GAMG:  Solving for p, Initial residual = 0.0110072, Final residual = 0.00040669, No Iterations 2
time step continuity errors : sum local = 0.00108662, global = 0.000224367, cumulative = 0.00599558
smoothSolver:  Solving for omega, Initial residual = 0.00444511, Final residual = 0.000303463, No Iterations 6
smoothSolver:  Solving for k, Initial residual = 0.0381726, Final residual = 0.0030604, No Iterations 6
ExecutionTime = 0.44 s  ClockTime = 0 s

scalarTransport execute: age
smoothSolver:  Solving for age, Initial residual = 0.0113279, Final residual = 0.00098222, No Iterations 10

Time = 32

smoothSolver:  Solving for Ux, Initial residual = 0.0115523, Final residual = 0.000813208, No Iterations 6
smoothSolver:  Solving for Uy, Initial residual = 0.00846261, Final residual = 0.00084448, No Iterations 5
GAMG:  Solving for p, Initial residual = 0.0109808, Final residual = 0.000416853, No Iterations 2
time step continuity errors : sum local = 0.00110815, global = 0.000218519, cumulative = 0.0062141
smoothSolver:  Solving for omega, Initial residual = 0.00419333, Final residual = 0.000285525, No Iterations 6
smoothSolver:  Solving for k, Initial residual = 0.0366962, Final residual = 0.00294585, No Iterations 6
ExecutionTime = 0.45 s  ClockTime = 0 s

scalarTransport execute: age
smoothSolver:  Solving for age, Initial residual = 0.0110847, Final residual = 0.000981428, No Iterations 10

Time = 33

smoothSolver:  Solving for Ux, Initial residual = 0.0115129, Final residual = 0.000809509, No Iterations 6
smoothSolver:  Solving for Uy, Initial residual = 0.00824994, Final residual = 0.000821848, No Iterations 5
GAMG:  Solving for p, Initial residual = 0.0108083, Final residual = 0.000426397, No Iterations 2
time step continuity errors : sum local = 0.00112821, global = 0.000212655, cumulative = 0.00642676
smoothSolver:  Solving for omega, Initial residual = 0.00396265, Final residual = 0.000269095, No Iterations 6
smoothSolver:  Solving for k, Initial residual = 0.0352987, Final residual = 0.00283731, No Iterations 6
ExecutionTime = 0.46 s  ClockTime = 0 s

scalarTransport execute: age
smoothSolver:  Solving for age, Initial residual = 0.0108921, Final residual = 0.00099301, No Iterations 10

Time = 34

smoothSolver:  Solving for Ux, Initial residual = 0.0115283, Final residual = 0.000808678, No Iterations 6
smoothSolver:  Solving for Uy, Initial residual = 0.00799831, Final residual = 0.000794093, No Iterations 5
GAMG:  Solving for p, Initial residual = 0.0105784, Final residual = 0.00043203, No Iterations 2
time step continuity errors : sum local = 0.00113867, global = 0.000206924, cumulative = 0.00663368
smoothSolver:  Solving for omega, Initial residual = 0.0037494, Final residual = 0.000253958, No Iterations 6
smoothSolver:  Solving for k, Initial residual = 0.0339773, Final residual = 0.00273448, No Iterations 6
ExecutionTime = 0.48 s  ClockTime = 0 s

scalarTransport execute: age
smoothSolver:  Solving for age, Initial residual = 0.0107364, Final residual = 0.0010097, No Iterations 10

Time = 35

smoothSolver:  Solving for Ux, Initial residual = 0.0115716, Final residual = 0.000810322, No Iterations 6
smoothSolver:  Solving for Uy, Initial residual = 0.00769776, Final residual = 0.00076202, No Iterations 5
GAMG:  Solving for p, Initial residual = 0.0103589, Final residual = 0.000427203, No Iterations 2
time step continuity errors : sum local = 0.00112207, global = 0.000195633, cumulative = 0.00682931
smoothSolver:  Solving for omega, Initial residual = 0.00355464, Final residual = 0.000239965, No Iterations 6
smoothSolver:  Solving for k, Initial residual = 0.0327255, Final residual = 0.00263694, No Iterations 6
ExecutionTime = 0.49 s  ClockTime = 0 s

scalarTransport execute: age
smoothSolver:  Solving for age, Initial residual = 0.0106514, Final residual = 0.00102091, No Iterations 10

Time = 36

smoothSolver:  Solving for Ux, Initial residual = 0.0116446, Final residual = 0.000814095, No Iterations 6
smoothSolver:  Solving for Uy, Initial residual = 0.00737342, Final residual = 0.000727868, No Iterations 5
GAMG:  Solving for p, Initial residual = 0.0100567, Final residual = 0.000420799, No Iterations 2
time step continuity errors : sum local = 0.0010999, global = 0.000184657, cumulative = 0.00701397
smoothSolver:  Solving for omega, Initial residual = 0.00337354, Final residual = 0.00022697, No Iterations 6
smoothSolver:  Solving for k, Initial residual = 0.0315412, Final residual = 0.00254449, No Iterations 6
ExecutionTime = 0.5 s  ClockTime = 0 s

scalarTransport execute: age
smoothSolver:  Solving for age, Initial residual = 0.0105995, Final residual = 0.00103271, No Iterations 10

Time = 37

smoothSolver:  Solving for Ux, Initial residual = 0.0117113, Final residual = 0.000817936, No Iterations 6
smoothSolver:  Solving for Uy, Initial residual = 0.00704884, Final residual = 0.000693959, No Iterations 5
GAMG:  Solving for p, Initial residual = 0.00977156, Final residual = 0.000412843, No Iterations 2
time step continuity errors : sum local = 0.00107505, global = 0.000174544, cumulative = 0.00718852
smoothSolver:  Solving for omega, Initial residual = 0.00320998, Final residual = 0.000214886, No Iterations 6
smoothSolver:  Solving for k, Initial residual = 0.0304179, Final residual = 0.00245677, No Iterations 6
ExecutionTime = 0.51 s  ClockTime = 0 s

scalarTransport execute: age
smoothSolver:  Solving for age, Initial residual = 0.0105446, Final residual = 0.00104541, No Iterations 10

Time = 38

smoothSolver:  Solving for Ux, Initial residual = 0.0117672, Final residual = 0.000821955, No Iterations 6
smoothSolver:  Solving for Uy, Initial residual = 0.00673576, Final residual = 0.000661324, No Iterations 5
GAMG:  Solving for p, Initial residual = 0.00957513, Final residual = 0.00040921, No Iterations 2
time step continuity errors : sum local = 0.00106235, global = 0.00016569, cumulative = 0.00735421
smoothSolver:  Solving for omega, Initial residual = 0.00305398, Final residual = 0.000203629, No Iterations 6
smoothSolver:  Solving for k, Initial residual = 0.0293504, Final residual = 0.00237351, No Iterations 6
ExecutionTime = 0.52 s  ClockTime = 0 s

scalarTransport execute: age
smoothSolver:  Solving for age, Initial residual = 0.0104798, Final residual = 0.000897013, No Iterations 11

Time = 39

smoothSolver:  Solving for Ux, Initial residual = 0.0118119, Final residual = 0.00082576, No Iterations 6
smoothSolver:  Solving for Uy, Initial residual = 0.00645439, Final residual = 0.00063086, No Iterations 5
GAMG:  Solving for p, Initial residual = 0.00949548, Final residual = 0.000416983, No Iterations 2
time step continuity errors : sum local = 0.00108002, global = 0.00015861, cumulative = 0.00751282
smoothSolver:  Solving for omega, Initial residual = 0.00290185, Final residual = 0.000192853, No Iterations 6
smoothSolver:  Solving for k, Initial residual = 0.0283403, Final residual = 0.00229465, No Iterations 6
ExecutionTime = 0.54 s  ClockTime = 0 s

scalarTransport execute: age
smoothSolver:  Solving for age, Initial residual = 0.0104081, Final residual = 0.000907428, No Iterations 11

Time = 40

smoothSolver:  Solving for Ux, Initial residual = 0.0118549, Final residual = 0.000828981, No Iterations 6
smoothSolver:  Solving for Uy, Initial residual = 0.0061952, Final residual = 0.000602912, No Iterations 5
GAMG:  Solving for p, Initial residual = 0.00942678, Final residual = 0.000435695, No Iterations 2
time step continuity errors : sum local = 0.00112687, global = 0.000153703, cumulative = 0.00766652
smoothSolver:  Solving for omega, Initial residual = 0.00277153, Final residual = 0.000182749, No Iterations 6
smoothSolver:  Solving for k, Initial residual = 0.0273861, Final residual = 0.00221979, No Iterations 6
ExecutionTime = 0.55 s  ClockTime = 0 s

scalarTransport execute: age
smoothSolver:  Solving for age, Initial residual = 0.0103608, Final residual = 0.000922521, No Iterations 11

Time = 41

smoothSolver:  Solving for Ux, Initial residual = 0.0119256, Final residual = 0.000831854, No Iterations 6
smoothSolver:  Solving for Uy, Initial residual = 0.00595514, Final residual = 0.000577734, No Iterations 5
GAMG:  Solving for p, Initial residual = 0.00935923, Final residual = 0.000461813, No Iterations 2
time step continuity errors : sum local = 0.00119352, global = 0.000151009, cumulative = 0.00781753
smoothSolver:  Solving for omega, Initial residual = 0.00264549, Final residual = 0.000173378, No Iterations 6
smoothSolver:  Solving for k, Initial residual = 0.0264826, Final residual = 0.00214857, No Iterations 6
ExecutionTime = 0.56 s  ClockTime = 0 s

scalarTransport execute: age
smoothSolver:  Solving for age, Initial residual = 0.0102815, Final residual = 0.000941455, No Iterations 11

Time = 42

smoothSolver:  Solving for Ux, Initial residual = 0.0120168, Final residual = 0.000834608, No Iterations 6
smoothSolver:  Solving for Uy, Initial residual = 0.00573926, Final residual = 0.000555596, No Iterations 5
GAMG:  Solving for p, Initial residual = 0.00931352, Final residual = 0.00049335, No Iterations 2
time step continuity errors : sum local = 0.00127417, global = 0.000154795, cumulative = 0.00797232
smoothSolver:  Solving for omega, Initial residual = 0.00252794, Final residual = 0.000164626, No Iterations 6
smoothSolver:  Solving for k, Initial residual = 0.025627, Final residual = 0.00208073, No Iterations 6
ExecutionTime = 0.57 s  ClockTime = 0 s

scalarTransport execute: age
smoothSolver:  Solving for age, Initial residual = 0.0102083, Final residual = 0.000961396, No Iterations 11

Time = 43

smoothSolver:  Solving for Ux, Initial residual = 0.0120926, Final residual = 0.00083654, No Iterations 6
smoothSolver:  Solving for Uy, Initial residual = 0.00555764, Final residual = 0.000536886, No Iterations 5
GAMG:  Solving for p, Initial residual = 0.00930785, Final residual = 0.000519214, No Iterations 2
time step continuity errors : sum local = 0.00134128, global = 0.000160503, cumulative = 0.00813283
smoothSolver:  Solving for omega, Initial residual = 0.00241936, Final residual = 0.000241026, No Iterations 5
smoothSolver:  Solving for k, Initial residual = 0.0248352, Final residual = 0.0020175, No Iterations 6
ExecutionTime = 0.59 s  ClockTime = 0 s

scalarTransport execute: age
smoothSolver:  Solving for age, Initial residual = 0.0101481, Final residual = 0.000978264, No Iterations 11

Time = 44

smoothSolver:  Solving for Ux, Initial residual = 0.0121747, Final residual = 0.00083957, No Iterations 6
smoothSolver:  Solving for Uy, Initial residual = 0.00541231, Final residual = 0.000521952, No Iterations 5
GAMG:  Solving for p, Initial residual = 0.00933786, Final residual = 0.000544058, No Iterations 2
time step continuity errors : sum local = 0.00140639, global = 0.000167635, cumulative = 0.00830046
smoothSolver:  Solving for omega, Initial residual = 0.00232862, Final residual = 0.000230262, No Iterations 5
smoothSolver:  Solving for k, Initial residual = 0.0240925, Final residual = 0.00195769, No Iterations 6
ExecutionTime = 0.6 s  ClockTime = 0 s

scalarTransport execute: age
smoothSolver:  Solving for age, Initial residual = 0.0100962, Final residual = 0.00100244, No Iterations 11

Time = 45

smoothSolver:  Solving for Ux, Initial residual = 0.0122511, Final residual = 0.000843004, No Iterations 6
smoothSolver:  Solving for Uy, Initial residual = 0.00529969, Final residual = 0.000510613, No Iterations 5
GAMG:  Solving for p, Initial residual = 0.00938578, Final residual = 0.000565403, No Iterations 2
time step continuity errors : sum local = 0.00146299, global = 0.000175162, cumulative = 0.00847562
smoothSolver:  Solving for omega, Initial residual = 0.00224359, Final residual = 0.000220048, No Iterations 5
smoothSolver:  Solving for k, Initial residual = 0.023384, Final residual = 0.00190039, No Iterations 6
ExecutionTime = 0.61 s  ClockTime = 0 s

scalarTransport execute: age
smoothSolver:  Solving for age, Initial residual = 0.0100611, Final residual = 0.00090256, No Iterations 12

Time = 46

smoothSolver:  Solving for Ux, Initial residual = 0.012318, Final residual = 0.000846787, No Iterations 6
smoothSolver:  Solving for Uy, Initial residual = 0.00521573, Final residual = 0.000503016, No Iterations 5
GAMG:  Solving for p, Initial residual = 0.00941788, Final residual = 0.00058298, No Iterations 2
time step continuity errors : sum local = 0.00151025, global = 0.000181757, cumulative = 0.00865738
smoothSolver:  Solving for omega, Initial residual = 0.00216512, Final residual = 0.000210323, No Iterations 5
smoothSolver:  Solving for k, Initial residual = 0.022706, Final residual = 0.00184534, No Iterations 6
ExecutionTime = 0.62 s  ClockTime = 0 s

scalarTransport execute: age
smoothSolver:  Solving for age, Initial residual = 0.0102468, Final residual = 0.0009498, No Iterations 12

Time = 47

smoothSolver:  Solving for Ux, Initial residual = 0.012388, Final residual = 0.000850989, No Iterations 6
smoothSolver:  Solving for Uy, Initial residual = 0.00516462, Final residual = 0.000499615, No Iterations 5
GAMG:  Solving for p, Initial residual = 0.00944082, Final residual = 0.000599292, No Iterations 2
time step continuity errors : sum local = 0.00155331, global = 0.000187432, cumulative = 0.00884481
smoothSolver:  Solving for omega, Initial residual = 0.00209314, Final residual = 0.00020114, No Iterations 5
smoothSolver:  Solving for k, Initial residual = 0.0220589, Final residual = 0.00179253, No Iterations 6
ExecutionTime = 0.64 s  ClockTime = 0 s

scalarTransport execute: age
smoothSolver:  Solving for age, Initial residual = 0.0104356, Final residual = 0.000980437, No Iterations 12

Time = 48

smoothSolver:  Solving for Ux, Initial residual = 0.0124537, Final residual = 0.000855665, No Iterations 6
smoothSolver:  Solving for Uy, Initial residual = 0.00514825, Final residual = 0.000500618, No Iterations 5
GAMG:  Solving for p, Initial residual = 0.00949574, Final residual = 0.000611503, No Iterations 2
time step continuity errors : sum local = 0.0015848, global = 0.000189614, cumulative = 0.00903443
smoothSolver:  Solving for omega, Initial residual = 0.00202338, Final residual = 0.000192519, No Iterations 5
smoothSolver:  Solving for k, Initial residual = 0.0214413, Final residual = 0.00174192, No Iterations 6
ExecutionTime = 0.65 s  ClockTime = 0 s

scalarTransport execute: age
smoothSolver:  Solving for age, Initial residual = 0.0106581, Final residual = 0.000923939, No Iterations 13

Time = 49

smoothSolver:  Solving for Ux, Initial residual = 0.0125321, Final residual = 0.000860814, No Iterations 6
smoothSolver:  Solving for Uy, Initial residual = 0.00516021, Final residual = 0.000505067, No Iterations 5
GAMG:  Solving for p, Initial residual = 0.00954565, Final residual = 0.000623563, No Iterations 2
time step continuity errors : sum local = 0.00161708, global = 0.000189997, cumulative = 0.00922442
smoothSolver:  Solving for omega, Initial residual = 0.00195423, Final residual = 0.000184279, No Iterations 5
smoothSolver:  Solving for k, Initial residual = 0.0208494, Final residual = 0.00169333, No Iterations 6
ExecutionTime = 0.66 s  ClockTime = 0 s

scalarTransport execute: age
smoothSolver:  Solving for age, Initial residual = 0.0118171, Final residual = 0.00112676, No Iterations 11

Time = 50

smoothSolver:  Solving for Ux, Initial residual = 0.0126123, Final residual = 0.000866271, No Iterations 6
smoothSolver:  Solving for Uy, Initial residual = 0.00519865, Final residual = 0.000512565, No Iterations 5
GAMG:  Solving for p, Initial residual = 0.00954918, Final residual = 0.000636857, No Iterations 2
time step continuity errors : sum local = 0.00165308, global = 0.000188942, cumulative = 0.00941337
smoothSolver:  Solving for omega, Initial residual = 0.00188835, Final residual = 0.000176532, No Iterations 5
smoothSolver:  Solving for k, Initial residual = 0.0202798, Final residual = 0.00164652, No Iterations 6
ExecutionTime = 0.67 s  ClockTime = 0 s

scalarTransport execute: age
smoothSolver:  Solving for age, Initial residual = 0.0111619, Final residual = 0.00097821, No Iterations 12

Time = 51

smoothSolver:  Solving for Ux, Initial residual = 0.0126882, Final residual = 0.000871852, No Iterations 6
smoothSolver:  Solving for Uy, Initial residual = 0.0052578, Final residual = 0.000522607, No Iterations 5
GAMG:  Solving for p, Initial residual = 0.00956439, Final residual = 0.000642516, No Iterations 2
time step continuity errors : sum local = 0.00166926, global = 0.000186499, cumulative = 0.00959986
smoothSolver:  Solving for omega, Initial residual = 0.00182833, Final residual = 0.000169335, No Iterations 5
smoothSolver:  Solving for k, Initial residual = 0.0197326, Final residual = 0.00160141, No Iterations 6
ExecutionTime = 0.69 s  ClockTime = 0 s

scalarTransport execute: age
smoothSolver:  Solving for age, Initial residual = 0.0112266, Final residual = 0.001003, No Iterations 12

Time = 52

smoothSolver:  Solving for Ux, Initial residual = 0.0127561, Final residual = 0.000877408, No Iterations 6
smoothSolver:  Solving for Uy, Initial residual = 0.00532272, Final residual = 0.000348173, No Iterations 6
GAMG:  Solving for p, Initial residual = 0.00983195, Final residual = 0.000644983, No Iterations 2
time step continuity errors : sum local = 0.00167888, global = 0.000185354, cumulative = 0.00978522
smoothSolver:  Solving for omega, Initial residual = 0.00177011, Final residual = 0.000162537, No Iterations 5
smoothSolver:  Solving for k, Initial residual = 0.0192054, Final residual = 0.00155792, No Iterations 6
ExecutionTime = 0.7 s  ClockTime = 0 s

scalarTransport execute: age
smoothSolver:  Solving for age, Initial residual = 0.0113514, Final residual = 0.00103061, No Iterations 12

Time = 53

smoothSolver:  Solving for Ux, Initial residual = 0.0128275, Final residual = 0.000882467, No Iterations 6
smoothSolver:  Solving for Uy, Initial residual = 0.00535166, Final residual = 0.000353364, No Iterations 6
GAMG:  Solving for p, Initial residual = 0.0101881, Final residual = 0.000655032, No Iterations 2
time step continuity errors : sum local = 0.00171471, global = 0.00018513, cumulative = 0.00997035
smoothSolver:  Solving for omega, Initial residual = 0.00171767, Final residual = 0.000156028, No Iterations 5
smoothSolver:  Solving for k, Initial residual = 0.0186975, Final residual = 0.00151586, No Iterations 6
ExecutionTime = 0.71 s  ClockTime = 0 s

scalarTransport execute: age
smoothSolver:  Solving for age, Initial residual = 0.0115638, Final residual = 0.00106584, No Iterations 12

Time = 54

smoothSolver:  Solving for Ux, Initial residual = 0.0128702, Final residual = 0.000886167, No Iterations 6
smoothSolver:  Solving for Uy, Initial residual = 0.00542903, Final residual = 0.000361715, No Iterations 6
GAMG:  Solving for p, Initial residual = 0.0106612, Final residual = 0.000669035, No Iterations 2
time step continuity errors : sum local = 0.00177708, global = 0.000186962, cumulative = 0.0101573
smoothSolver:  Solving for omega, Initial residual = 0.00166654, Final residual = 0.000149711, No Iterations 5
smoothSolver:  Solving for k, Initial residual = 0.0182072, Final residual = 0.00147513, No Iterations 6
ExecutionTime = 0.72 s  ClockTime = 0 s

scalarTransport execute: age
smoothSolver:  Solving for age, Initial residual = 0.0118408, Final residual = 0.00110656, No Iterations 12

Time = 55

smoothSolver:  Solving for Ux, Initial residual = 0.0128846, Final residual = 0.000888742, No Iterations 6
smoothSolver:  Solving for Uy, Initial residual = 0.00555417, Final residual = 0.000372833, No Iterations 6
GAMG:  Solving for p, Initial residual = 0.0108333, Final residual = 0.000697367, No Iterations 2
time step continuity errors : sum local = 0.00183702, global = 0.000194461, cumulative = 0.0103518
smoothSolver:  Solving for omega, Initial residual = 0.00160861, Final residual = 0.000143761, No Iterations 5
smoothSolver:  Solving for k, Initial residual = 0.0177333, Final residual = 0.00143573, No Iterations 6
ExecutionTime = 0.74 s  ClockTime = 0 s

scalarTransport execute: age
smoothSolver:  Solving for age, Initial residual = 0.0121158, Final residual = 0.0011614, No Iterations 12

Time = 56

smoothSolver:  Solving for Ux, Initial residual = 0.0128962, Final residual = 0.000891004, No Iterations 6
smoothSolver:  Solving for Uy, Initial residual = 0.00569905, Final residual = 0.000386098, No Iterations 6
GAMG:  Solving for p, Initial residual = 0.0110407, Final residual = 0.000709286, No Iterations 2
time step continuity errors : sum local = 0.00185019, global = 0.000203357, cumulative = 0.0105551
smoothSolver:  Solving for omega, Initial residual = 0.00155895, Final residual = 0.000137933, No Iterations 5
smoothSolver:  Solving for k, Initial residual = 0.0172759, Final residual = 0.00139766, No Iterations 6
ExecutionTime = 0.75 s  ClockTime = 0 s

scalarTransport execute: age
smoothSolver:  Solving for age, Initial residual = 0.01249, Final residual = 0.00121595, No Iterations 12

Time = 57

smoothSolver:  Solving for Ux, Initial residual = 0.0129143, Final residual = 0.000892523, No Iterations 6
smoothSolver:  Solving for Uy, Initial residual = 0.00586114, Final residual = 0.000400495, No Iterations 6
GAMG:  Solving for p, Initial residual = 0.0109458, Final residual = 0.000675665, No Iterations 2
time step continuity errors : sum local = 0.00174044, global = 0.00021115, cumulative = 0.0107663
smoothSolver:  Solving for omega, Initial residual = 0.00151975, Final residual = 0.000131898, No Iterations 5
smoothSolver:  Solving for k, Initial residual = 0.0168284, Final residual = 0.00136083, No Iterations 6
ExecutionTime = 0.76 s  ClockTime = 0 s

scalarTransport execute: age
smoothSolver:  Solving for age, Initial residual = 0.0128258, Final residual = 0.00126726, No Iterations 12

Time = 58

smoothSolver:  Solving for Ux, Initial residual = 0.012899, Final residual = 0.000893694, No Iterations 6
smoothSolver:  Solving for Uy, Initial residual = 0.00605691, Final residual = 0.000416204, No Iterations 6
GAMG:  Solving for p, Initial residual = 0.0109248, Final residual = 0.00068905, No Iterations 2
time step continuity errors : sum local = 0.00176547, global = 0.000219014, cumulative = 0.0109853
smoothSolver:  Solving for omega, Initial residual = 0.00145554, Final residual = 0.000126543, No Iterations 5
smoothSolver:  Solving for k, Initial residual = 0.016398, Final residual = 0.00132513, No Iterations 6
ExecutionTime = 0.78 s  ClockTime = 0 s

scalarTransport execute: age
smoothSolver:  Solving for age, Initial residual = 0.0133597, Final residual = 0.00115021, No Iterations 13

Time = 59

smoothSolver:  Solving for Ux, Initial residual = 0.0128681, Final residual = 0.000894578, No Iterations 6
smoothSolver:  Solving for Uy, Initial residual = 0.00624515, Final residual = 0.000431297, No Iterations 6
GAMG:  Solving for p, Initial residual = 0.010928, Final residual = 0.000704639, No Iterations 2
time step continuity errors : sum local = 0.00179864, global = 0.000225602, cumulative = 0.0112109
smoothSolver:  Solving for omega, Initial residual = 0.00140336, Final residual = 0.000121502, No Iterations 5
smoothSolver:  Solving for k, Initial residual = 0.0159813, Final residual = 0.00129063, No Iterations 6
ExecutionTime = 0.79 s  ClockTime = 0 s

scalarTransport execute: age
smoothSolver:  Solving for age, Initial residual = 0.0139228, Final residual = 0.00120318, No Iterations 13

Time = 60

smoothSolver:  Solving for Ux, Initial residual = 0.0128437, Final residual = 0.000893811, No Iterations 6
smoothSolver:  Solving for Uy, Initial residual = 0.0064253, Final residual = 0.000446064, No Iterations 6
GAMG:  Solving for p, Initial residual = 0.0109258, Final residual = 0.000719368, No Iterations 2
time step continuity errors : sum local = 0.00183109, global = 0.000230558, cumulative = 0.0114415
smoothSolver:  Solving for omega, Initial residual = 0.00136265, Final residual = 0.000116722, No Iterations 5
smoothSolver:  Solving for k, Initial residual = 0.0155795, Final residual = 0.00125731, No Iterations 6
ExecutionTime = 0.8 s  ClockTime = 0 s

scalarTransport execute: age
smoothSolver:  Solving for age, Initial residual = 0.0146684, Final residual = 0.0014539, No Iterations 12

Time = 61

smoothSolver:  Solving for Ux, Initial residual = 0.0127833, Final residual = 0.00089134, No Iterations 6
smoothSolver:  Solving for Uy, Initial residual = 0.00660191, Final residual = 0.00046038, No Iterations 6
GAMG:  Solving for p, Initial residual = 0.0108271, Final residual = 0.000734756, No Iterations 2
time step continuity errors : sum local = 0.00186811, global = 0.00023372, cumulative = 0.0116752
smoothSolver:  Solving for omega, Initial residual = 0.00131785, Final residual = 0.000112236, No Iterations 5
smoothSolver:  Solving for k, Initial residual = 0.0151923, Final residual = 0.00122508, No Iterations 6
ExecutionTime = 0.81 s  ClockTime = 0 s

scalarTransport execute: age
smoothSolver:  Solving for age, Initial residual = 0.0153595, Final residual = 0.00151945, No Iterations 12

Time = 62

smoothSolver:  Solving for Ux, Initial residual = 0.0127125, Final residual = 0.000887819, No Iterations 6
smoothSolver:  Solving for Uy, Initial residual = 0.00676425, Final residual = 0.000474033, No Iterations 6
GAMG:  Solving for p, Initial residual = 0.0106807, Final residual = 0.000749919, No Iterations 2
time step continuity errors : sum local = 0.00190254, global = 0.000234548, cumulative = 0.0119097
smoothSolver:  Solving for omega, Initial residual = 0.00127429, Final residual = 0.00010798, No Iterations 5
smoothSolver:  Solving for k, Initial residual = 0.014817, Final residual = 0.00119393, No Iterations 6
ExecutionTime = 0.83 s  ClockTime = 0 s

scalarTransport execute: age
smoothSolver:  Solving for age, Initial residual = 0.0161862, Final residual = 0.00159717, No Iterations 12

Time = 63

smoothSolver:  Solving for Ux, Initial residual = 0.0126238, Final residual = 0.000883431, No Iterations 6
smoothSolver:  Solving for Uy, Initial residual = 0.00690689, Final residual = 0.000486812, No Iterations 6
GAMG:  Solving for p, Initial residual = 0.0104876, Final residual = 0.000759259, No Iterations 2
time step continuity errors : sum local = 0.00192281, global = 0.000233927, cumulative = 0.0121436
smoothSolver:  Solving for omega, Initial residual = 0.00123411, Final residual = 0.000103947, No Iterations 5
smoothSolver:  Solving for k, Initial residual = 0.0144539, Final residual = 0.00116377, No Iterations 6
ExecutionTime = 0.84 s  ClockTime = 0 s

scalarTransport execute: age
smoothSolver:  Solving for age, Initial residual = 0.0171126, Final residual = 0.00169114, No Iterations 12

Time = 64

smoothSolver:  Solving for Ux, Initial residual = 0.0125386, Final residual = 0.000878017, No Iterations 6
smoothSolver:  Solving for Uy, Initial residual = 0.00702889, Final residual = 0.000498499, No Iterations 6
GAMG:  Solving for p, Initial residual = 0.010027, Final residual = 0.000738622, No Iterations 2
time step continuity errors : sum local = 0.00186236, global = 0.000230964, cumulative = 0.0123746
smoothSolver:  Solving for omega, Initial residual = 0.00118484, Final residual = 0.000100219, No Iterations 5
smoothSolver:  Solving for k, Initial residual = 0.0141062, Final residual = 0.00113471, No Iterations 6
ExecutionTime = 0.85 s  ClockTime = 0 s

scalarTransport execute: age
smoothSolver:  Solving for age, Initial residual = 0.0180223, Final residual = 0.00165118, No Iterations 12

Time = 65

smoothSolver:  Solving for Ux, Initial residual = 0.0124204, Final residual = 0.000872752, No Iterations 6
smoothSolver:  Solving for Uy, Initial residual = 0.00712198, Final residual = 0.000509008, No Iterations 6
GAMG:  Solving for p, Initial residual = 0.00967664, Final residual = 0.000721267, No Iterations 2
time step continuity errors : sum local = 0.0018115, global = 0.000226515, cumulative = 0.0126011
smoothSolver:  Solving for omega, Initial residual = 0.00114922, Final residual = 9.68125e-05, No Iterations 5
smoothSolver:  Solving for k, Initial residual = 0.0137688, Final residual = 0.00110656, No Iterations 6
ExecutionTime = 0.86 s  ClockTime = 1 s

scalarTransport execute: age
smoothSolver:  Solving for age, Initial residual = 0.0187951, Final residual = 0.00167761, No Iterations 12

Time = 66

smoothSolver:  Solving for Ux, Initial residual = 0.0123056, Final residual = 0.000867892, No Iterations 6
smoothSolver:  Solving for Uy, Initial residual = 0.00719563, Final residual = 0.000517974, No Iterations 6
GAMG:  Solving for p, Initial residual = 0.00941823, Final residual = 0.000705185, No Iterations 2
time step continuity errors : sum local = 0.0017625, global = 0.000220704, cumulative = 0.0128218
smoothSolver:  Solving for omega, Initial residual = 0.00111808, Final residual = 9.3651e-05, No Iterations 5
smoothSolver:  Solving for k, Initial residual = 0.0134406, Final residual = 0.00107933, No Iterations 6
ExecutionTime = 0.88 s  ClockTime = 1 s

scalarTransport execute: age
smoothSolver:  Solving for age, Initial residual = 0.0190623, Final residual = 0.00188883, No Iterations 11

Time = 67

smoothSolver:  Solving for Ux, Initial residual = 0.0121975, Final residual = 0.000863085, No Iterations 6
smoothSolver:  Solving for Uy, Initial residual = 0.00724491, Final residual = 0.000525591, No Iterations 6
GAMG:  Solving for p, Initial residual = 0.00923563, Final residual = 0.000688559, No Iterations 2
time step continuity errors : sum local = 0.00171296, global = 0.000214146, cumulative = 0.013036
smoothSolver:  Solving for omega, Initial residual = 0.00109172, Final residual = 9.06798e-05, No Iterations 5
smoothSolver:  Solving for k, Initial residual = 0.0131218, Final residual = 0.00105295, No Iterations 6
ExecutionTime = 0.89 s  ClockTime = 1 s

scalarTransport execute: age
smoothSolver:  Solving for age, Initial residual = 0.0189962, Final residual = 0.00183942, No Iterations 11

Time = 68

smoothSolver:  Solving for Ux, Initial residual = 0.0120984, Final residual = 0.000858142, No Iterations 6
smoothSolver:  Solving for Uy, Initial residual = 0.00728371, Final residual = 0.000531788, No Iterations 6
GAMG:  Solving for p, Initial residual = 0.00909913, Final residual = 0.000671095, No Iterations 2
time step continuity errors : sum local = 0.00166278, global = 0.000207117, cumulative = 0.0132431
smoothSolver:  Solving for omega, Initial residual = 0.00106526, Final residual = 8.78307e-05, No Iterations 5
smoothSolver:  Solving for k, Initial residual = 0.0128116, Final residual = 0.00102736, No Iterations 6
ExecutionTime = 0.9 s  ClockTime = 1 s

scalarTransport execute: age
smoothSolver:  Solving for age, Initial residual = 0.018655, Final residual = 0.00173401, No Iterations 11

Time = 69

smoothSolver:  Solving for Ux, Initial residual = 0.0120326, Final residual = 0.000853175, No Iterations 6
smoothSolver:  Solving for Uy, Initial residual = 0.00730456, Final residual = 0.000536599, No Iterations 6
GAMG:  Solving for p, Initial residual = 0.00895103, Final residual = 0.000651368, No Iterations 2
time step continuity errors : sum local = 0.00160784, global = 0.000199947, cumulative = 0.013443
smoothSolver:  Solving for omega, Initial residual = 0.00103826, Final residual = 8.50975e-05, No Iterations 5
smoothSolver:  Solving for k, Initial residual = 0.0125096, Final residual = 0.00100256, No Iterations 6
ExecutionTime = 0.91 s  ClockTime = 1 s

scalarTransport execute: age
smoothSolver:  Solving for age, Initial residual = 0.0173316, Final residual = 0.00159448, No Iterations 11

Time = 70

smoothSolver:  Solving for Ux, Initial residual = 0.0119751, Final residual = 0.000848153, No Iterations 6
smoothSolver:  Solving for Uy, Initial residual = 0.00731119, Final residual = 0.000540106, No Iterations 6
GAMG:  Solving for p, Initial residual = 0.00876052, Final residual = 0.000628551, No Iterations 2
time step continuity errors : sum local = 0.00154715, global = 0.000192807, cumulative = 0.0136358
smoothSolver:  Solving for omega, Initial residual = 0.00101082, Final residual = 8.24399e-05, No Iterations 5
smoothSolver:  Solving for k, Initial residual = 0.0122169, Final residual = 0.000978542, No Iterations 6
ExecutionTime = 0.93 s  ClockTime = 1 s

scalarTransport execute: age
smoothSolver:  Solving for age, Initial residual = 0.0157612, Final residual = 0.0014691, No Iterations 11

Time = 71

smoothSolver:  Solving for Ux, Initial residual = 0.0119175, Final residual = 0.000843799, No Iterations 6
smoothSolver:  Solving for Uy, Initial residual = 0.007304, Final residual = 0.000542488, No Iterations 6
GAMG:  Solving for p, Initial residual = 0.00853825, Final residual = 0.000607937, No Iterations 2
time step continuity errors : sum local = 0.00149218, global = 0.000180331, cumulative = 0.0138162
smoothSolver:  Solving for omega, Initial residual = 0.000984845, Final residual = 7.99084e-05, No Iterations 5
smoothSolver:  Solving for k, Initial residual = 0.0119323, Final residual = 0.000955236, No Iterations 6
ExecutionTime = 0.94 s  ClockTime = 1 s

scalarTransport execute: age
smoothSolver:  Solving for age, Initial residual = 0.014717, Final residual = 0.00138892, No Iterations 11

Time = 72

smoothSolver:  Solving for Ux, Initial residual = 0.0118742, Final residual = 0.000841317, No Iterations 6
smoothSolver:  Solving for Uy, Initial residual = 0.00727841, Final residual = 0.000543388, No Iterations 6
GAMG:  Solving for p, Initial residual = 0.00834828, Final residual = 0.000581039, No Iterations 2
time step continuity errors : sum local = 0.00142166, global = 0.000168002, cumulative = 0.0139842
smoothSolver:  Solving for omega, Initial residual = 0.000958487, Final residual = 7.75186e-05, No Iterations 5
smoothSolver:  Solving for k, Initial residual = 0.0116562, Final residual = 0.000932605, No Iterations 6
ExecutionTime = 0.95 s  ClockTime = 1 s

scalarTransport execute: age
smoothSolver:  Solving for age, Initial residual = 0.0139541, Final residual = 0.00125155, No Iterations 12

Time = 73

smoothSolver:  Solving for Ux, Initial residual = 0.0118193, Final residual = 0.000837761, No Iterations 6
smoothSolver:  Solving for Uy, Initial residual = 0.00724571, Final residual = 0.000543646, No Iterations 6
GAMG:  Solving for p, Initial residual = 0.00818704, Final residual = 0.000558702, No Iterations 2
time step continuity errors : sum local = 0.00136065, global = 0.000156016, cumulative = 0.0141402
smoothSolver:  Solving for omega, Initial residual = 0.000933901, Final residual = 7.52704e-05, No Iterations 5
smoothSolver:  Solving for k, Initial residual = 0.0113889, Final residual = 0.000910616, No Iterations 6
ExecutionTime = 0.96 s  ClockTime = 1 s

scalarTransport execute: age
smoothSolver:  Solving for age, Initial residual = 0.0134388, Final residual = 0.00127529, No Iterations 12

Time = 74

smoothSolver:  Solving for Ux, Initial residual = 0.0117469, Final residual = 0.000832571, No Iterations 6
smoothSolver:  Solving for Uy, Initial residual = 0.0072034, Final residual = 0.000543117, No Iterations 6
GAMG:  Solving for p, Initial residual = 0.0081125, Final residual = 0.000539358, No Iterations 2
time step continuity errors : sum local = 0.00130741, global = 0.000143071, cumulative = 0.0142833
smoothSolver:  Solving for omega, Initial residual = 0.000910935, Final residual = 7.31238e-05, No Iterations 5
smoothSolver:  Solving for k, Initial residual = 0.0111283, Final residual = 0.000889198, No Iterations 6
ExecutionTime = 0.98 s  ClockTime = 1 s

scalarTransport execute: age
smoothSolver:  Solving for age, Initial residual = 0.0132985, Final residual = 0.00125108, No Iterations 12

Time = 75

smoothSolver:  Solving for Ux, Initial residual = 0.0116667, Final residual = 0.000826318, No Iterations 6
smoothSolver:  Solving for Uy, Initial residual = 0.00715963, Final residual = 0.000541831, No Iterations 6
GAMG:  Solving for p, Initial residual = 0.00806231, Final residual = 0.000523698, No Iterations 2
time step continuity errors : sum local = 0.00126356, global = 0.000130544, cumulative = 0.0144138
smoothSolver:  Solving for omega, Initial residual = 0.00089084, Final residual = 7.10607e-05, No Iterations 5
smoothSolver:  Solving for k, Initial residual = 0.010876, Final residual = 0.00086827, No Iterations 6
ExecutionTime = 0.99 s  ClockTime = 1 s

scalarTransport execute: age
smoothSolver:  Solving for age, Initial residual = 0.0130991, Final residual = 0.00120488, No Iterations 12

Time = 76

smoothSolver:  Solving for Ux, Initial residual = 0.0115769, Final residual = 0.000819418, No Iterations 6
smoothSolver:  Solving for Uy, Initial residual = 0.00710684, Final residual = 0.000539683, No Iterations 6
GAMG:  Solving for p, Initial residual = 0.00800704, Final residual = 0.000513196, No Iterations 2
time step continuity errors : sum local = 0.0012326, global = 0.000119629, cumulative = 0.0145334
smoothSolver:  Solving for omega, Initial residual = 0.000870317, Final residual = 6.90873e-05, No Iterations 5
smoothSolver:  Solving for k, Initial residual = 0.0106302, Final residual = 0.00084782, No Iterations 6
ExecutionTime = 1 s  ClockTime = 1 s

scalarTransport execute: age
smoothSolver:  Solving for age, Initial residual = 0.0128896, Final residual = 0.00118725, No Iterations 12

Time = 77

smoothSolver:  Solving for Ux, Initial residual = 0.0114807, Final residual = 0.000812142, No Iterations 6
smoothSolver:  Solving for Uy, Initial residual = 0.00705057, Final residual = 0.000536755, No Iterations 6
GAMG:  Solving for p, Initial residual = 0.00795421, Final residual = 0.000507485, No Iterations 2
time step continuity errors : sum local = 0.00121347, global = 0.000110415, cumulative = 0.0146439
smoothSolver:  Solving for omega, Initial residual = 0.000850292, Final residual = 6.71967e-05, No Iterations 5
smoothSolver:  Solving for k, Initial residual = 0.0103891, Final residual = 0.000827779, No Iterations 6
ExecutionTime = 1.01 s  ClockTime = 1 s

scalarTransport execute: age
smoothSolver:  Solving for age, Initial residual = 0.0126985, Final residual = 0.00119762, No Iterations 12

Time = 78

smoothSolver:  Solving for Ux, Initial residual = 0.0113808, Final residual = 0.000804331, No Iterations 6
smoothSolver:  Solving for Uy, Initial residual = 0.0069898, Final residual = 0.000533008, No Iterations 6
GAMG:  Solving for p, Initial residual = 0.00790792, Final residual = 0.000504895, No Iterations 2
time step continuity errors : sum local = 0.00120164, global = 0.000103902, cumulative = 0.0147478
smoothSolver:  Solving for omega, Initial residual = 0.000831309, Final residual = 6.53486e-05, No Iterations 5
smoothSolver:  Solving for k, Initial residual = 0.010152, Final residual = 0.000808125, No Iterations 6
ExecutionTime = 1.03 s  ClockTime = 1 s

scalarTransport execute: age
smoothSolver:  Solving for age, Initial residual = 0.0125473, Final residual = 0.00122615, No Iterations 12

Time = 79

smoothSolver:  Solving for Ux, Initial residual = 0.0112691, Final residual = 0.000796062, No Iterations 6
smoothSolver:  Solving for Uy, Initial residual = 0.00692302, Final residual = 0.000528296, No Iterations 6
GAMG:  Solving for p, Initial residual = 0.00788528, Final residual = 0.000502043, No Iterations 2
time step continuity errors : sum local = 0.00118898, global = 9.94792e-05, cumulative = 0.0148472
smoothSolver:  Solving for omega, Initial residual = 0.000812134, Final residual = 6.35268e-05, No Iterations 5
smoothSolver:  Solving for k, Initial residual = 0.00991964, Final residual = 0.000788832, No Iterations 6
ExecutionTime = 1.04 s  ClockTime = 1 s

scalarTransport execute: age
smoothSolver:  Solving for age, Initial residual = 0.012376, Final residual = 0.00108972, No Iterations 13

Time = 80

smoothSolver:  Solving for Ux, Initial residual = 0.0111494, Final residual = 0.000787413, No Iterations 6
smoothSolver:  Solving for Uy, Initial residual = 0.00685299, Final residual = 0.000522528, No Iterations 6
GAMG:  Solving for p, Initial residual = 0.00788025, Final residual = 0.000498307, No Iterations 2
time step continuity errors : sum local = 0.00117404, global = 0.000105946, cumulative = 0.0149532
smoothSolver:  Solving for omega, Initial residual = 0.000792825, Final residual = 6.17531e-05, No Iterations 5
smoothSolver:  Solving for k, Initial residual = 0.009691, Final residual = 0.000769862, No Iterations 6
ExecutionTime = 1.05 s  ClockTime = 1 s

scalarTransport execute: age
smoothSolver:  Solving for age, Initial residual = 0.0120885, Final residual = 0.00109646, No Iterations 13

Time = 81

smoothSolver:  Solving for Ux, Initial residual = 0.0110041, Final residual = 0.000776802, No Iterations 6
smoothSolver:  Solving for Uy, Initial residual = 0.00678352, Final residual = 0.000516361, No Iterations 6
GAMG:  Solving for p, Initial residual = 0.00786957, Final residual = 0.000501568, No Iterations 2
time step continuity errors : sum local = 0.00117617, global = 0.000102843, cumulative = 0.015056
smoothSolver:  Solving for omega, Initial residual = 0.000777937, Final residual = 6.00509e-05, No Iterations 5
smoothSolver:  Solving for k, Initial residual = 0.0094653, Final residual = 0.000751213, No Iterations 6
ExecutionTime = 1.07 s  ClockTime = 1 s

scalarTransport execute: age
smoothSolver:  Solving for age, Initial residual = 0.0117041, Final residual = 0.00109654, No Iterations 13

Time = 82

smoothSolver:  Solving for Ux, Initial residual = 0.0108838, Final residual = 0.000768264, No Iterations 6
smoothSolver:  Solving for Uy, Initial residual = 0.00667921, Final residual = 0.000507273, No Iterations 6
GAMG:  Solving for p, Initial residual = 0.00784825, Final residual = 0.000491927, No Iterations 2
time step continuity errors : sum local = 0.00114678, global = 0.000102037, cumulative = 0.0151581
smoothSolver:  Solving for omega, Initial residual = 0.000759662, Final residual = 5.84153e-05, No Iterations 5
smoothSolver:  Solving for k, Initial residual = 0.00924412, Final residual = 0.000732848, No Iterations 6
ExecutionTime = 1.08 s  ClockTime = 1 s

scalarTransport execute: age
smoothSolver:  Solving for age, Initial residual = 0.0112632, Final residual = 0.00110953, No Iterations 13

Time = 83

smoothSolver:  Solving for Ux, Initial residual = 0.0107477, Final residual = 0.000758852, No Iterations 6
smoothSolver:  Solving for Uy, Initial residual = 0.00657139, Final residual = 0.000498278, No Iterations 6
GAMG:  Solving for p, Initial residual = 0.00780838, Final residual = 0.000483002, No Iterations 2
time step continuity errors : sum local = 0.00111914, global = 0.000102049, cumulative = 0.0152601
smoothSolver:  Solving for omega, Initial residual = 0.000743389, Final residual = 5.67999e-05, No Iterations 5
smoothSolver:  Solving for k, Initial residual = 0.00902509, Final residual = 0.000714746, No Iterations 6
ExecutionTime = 1.09 s  ClockTime = 1 s

scalarTransport execute: age
smoothSolver:  Solving for age, Initial residual = 0.0108566, Final residual = 0.000984128, No Iterations 14

Time = 84

smoothSolver:  Solving for Ux, Initial residual = 0.0106046, Final residual = 0.000748642, No Iterations 6
smoothSolver:  Solving for Uy, Initial residual = 0.00645006, Final residual = 0.000488181, No Iterations 6
GAMG:  Solving for p, Initial residual = 0.00774959, Final residual = 0.000474747, No Iterations 2
time step continuity errors : sum local = 0.00109306, global = 0.000102366, cumulative = 0.0153625
smoothSolver:  Solving for omega, Initial residual = 0.000726959, Final residual = 5.5195e-05, No Iterations 5
smoothSolver:  Solving for k, Initial residual = 0.00880872, Final residual = 0.000696894, No Iterations 6
ExecutionTime = 1.1 s  ClockTime = 1 s

scalarTransport execute: age
smoothSolver:  Solving for age, Initial residual = 0.0105408, Final residual = 0.000993661, No Iterations 14

Time = 85

smoothSolver:  Solving for Ux, Initial residual = 0.0104541, Final residual = 0.000737885, No Iterations 6
smoothSolver:  Solving for Uy, Initial residual = 0.00631566, Final residual = 0.000476737, No Iterations 6
GAMG:  Solving for p, Initial residual = 0.0076763, Final residual = 0.000465741, No Iterations 2
time step continuity errors : sum local = 0.00106556, global = 0.000102504, cumulative = 0.015465
smoothSolver:  Solving for omega, Initial residual = 0.000709656, Final residual = 5.35384e-05, No Iterations 5
smoothSolver:  Solving for k, Initial residual = 0.00859499, Final residual = 0.000679315, No Iterations 6
ExecutionTime = 1.12 s  ClockTime = 1 s

scalarTransport execute: age
smoothSolver:  Solving for age, Initial residual = 0.0102919, Final residual = 0.00100818, No Iterations 14

Time = 86

smoothSolver:  Solving for Ux, Initial residual = 0.0102953, Final residual = 0.000726574, No Iterations 6
smoothSolver:  Solving for Uy, Initial residual = 0.00616935, Final residual = 0.000464294, No Iterations 6
GAMG:  Solving for p, Initial residual = 0.00758803, Final residual = 0.000461688, No Iterations 2
time step continuity errors : sum local = 0.00104992, global = 0.000115107, cumulative = 0.0155801
smoothSolver:  Solving for omega, Initial residual = 0.000691187, Final residual = 5.18768e-05, No Iterations 5
smoothSolver:  Solving for k, Initial residual = 0.00838427, Final residual = 0.000661975, No Iterations 6
ExecutionTime = 1.13 s  ClockTime = 1 s

scalarTransport execute: age
smoothSolver:  Solving for age, Initial residual = 0.0101912, Final residual = 0.000894937, No Iterations 15

Time = 87

smoothSolver:  Solving for Ux, Initial residual = 0.010104, Final residual = 0.000712649, No Iterations 6
smoothSolver:  Solving for Uy, Initial residual = 0.0060257, Final residual = 0.000451962, No Iterations 6
GAMG:  Solving for p, Initial residual = 0.00751023, Final residual = 0.000451229, No Iterations 2
time step continuity errors : sum local = 0.00102097, global = 0.000111319, cumulative = 0.0156914
smoothSolver:  Solving for omega, Initial residual = 0.000679155, Final residual = 5.02898e-05, No Iterations 5
smoothSolver:  Solving for k, Initial residual = 0.00817547, Final residual = 0.000644854, No Iterations 6
ExecutionTime = 1.14 s  ClockTime = 1 s

scalarTransport execute: age
smoothSolver:  Solving for age, Initial residual = 0.0101575, Final residual = 0.00090043, No Iterations 15

Time = 88

smoothSolver:  Solving for Ux, Initial residual = 0.00994022, Final residual = 0.000701038, No Iterations 6
smoothSolver:  Solving for Uy, Initial residual = 0.00584433, Final residual = 0.000436426, No Iterations 6
GAMG:  Solving for p, Initial residual = 0.00736878, Final residual = 0.000432674, No Iterations 2
time step continuity errors : sum local = 0.000973345, global = 0.000110223, cumulative = 0.0158016
smoothSolver:  Solving for omega, Initial residual = 0.00066239, Final residual = 4.87522e-05, No Iterations 5
smoothSolver:  Solving for k, Initial residual = 0.00796944, Final residual = 0.000627965, No Iterations 6
ExecutionTime = 1.15 s  ClockTime = 1 s

scalarTransport execute: age
smoothSolver:  Solving for age, Initial residual = 0.0101358, Final residual = 0.000893753, No Iterations 15

Time = 89

smoothSolver:  Solving for Ux, Initial residual = 0.00975564, Final residual = 0.000687975, No Iterations 6
smoothSolver:  Solving for Uy, Initial residual = 0.00567693, Final residual = 0.000422304, No Iterations 6
GAMG:  Solving for p, Initial residual = 0.0072519, Final residual = 0.000424494, No Iterations 2
time step continuity errors : sum local = 0.000950081, global = 0.00010913, cumulative = 0.0159108
smoothSolver:  Solving for omega, Initial residual = 0.000646974, Final residual = 4.72095e-05, No Iterations 5
smoothSolver:  Solving for k, Initial residual = 0.0077645, Final residual = 0.000611328, No Iterations 6
ExecutionTime = 1.17 s  ClockTime = 1 s

scalarTransport execute: age
smoothSolver:  Solving for age, Initial residual = 0.0100837, Final residual = 0.00089246, No Iterations 15

Time = 90

smoothSolver:  Solving for Ux, Initial residual = 0.0095557, Final residual = 0.00067354, No Iterations 6
smoothSolver:  Solving for Uy, Initial residual = 0.0055057, Final residual = 0.000407809, No Iterations 6
GAMG:  Solving for p, Initial residual = 0.00715207, Final residual = 0.00042267, No Iterations 2
time step continuity errors : sum local = 0.000941549, global = 0.000107878, cumulative = 0.0160186
smoothSolver:  Solving for omega, Initial residual = 0.000626837, Final residual = 4.55298e-05, No Iterations 5
smoothSolver:  Solving for k, Initial residual = 0.00756274, Final residual = 0.000594983, No Iterations 6
ExecutionTime = 1.18 s  ClockTime = 1 s

scalarTransport execute: age
smoothSolver:  Solving for age, Initial residual = 0.00996231, Final residual = 0.000883343, No Iterations 15

Time = 91

smoothSolver:  Solving for Ux, Initial residual = 0.00934076, Final residual = 0.000658199, No Iterations 6
smoothSolver:  Solving for Uy, Initial residual = 0.00532673, Final residual = 0.000392614, No Iterations 6
GAMG:  Solving for p, Initial residual = 0.00704509, Final residual = 0.000421803, No Iterations 2
time step continuity errors : sum local = 0.000935615, global = 0.0001069, cumulative = 0.0161255
smoothSolver:  Solving for omega, Initial residual = 0.00061117, Final residual = 4.41591e-05, No Iterations 5
smoothSolver:  Solving for k, Initial residual = 0.00736212, Final residual = 0.000578799, No Iterations 6
ExecutionTime = 1.19 s  ClockTime = 1 s

scalarTransport execute: age
smoothSolver:  Solving for age, Initial residual = 0.00972401, Final residual = 0.000859939, No Iterations 15

Time = 92

smoothSolver:  Solving for Ux, Initial residual = 0.00911756, Final residual = 0.000642307, No Iterations 6
smoothSolver:  Solving for Uy, Initial residual = 0.00514706, Final residual = 0.000377135, No Iterations 6
GAMG:  Solving for p, Initial residual = 0.00692871, Final residual = 0.000419952, No Iterations 2
time step continuity errors : sum local = 0.000927688, global = 0.000105951, cumulative = 0.0162315
smoothSolver:  Solving for omega, Initial residual = 0.000596994, Final residual = 4.28609e-05, No Iterations 5
smoothSolver:  Solving for k, Initial residual = 0.0071636, Final residual = 0.000562807, No Iterations 6
ExecutionTime = 1.21 s  ClockTime = 1 s

scalarTransport execute: age
smoothSolver:  Solving for age, Initial residual = 0.00936194, Final residual = 0.000923189, No Iterations 14

Time = 93

smoothSolver:  Solving for Ux, Initial residual = 0.00888604, Final residual = 0.000625943, No Iterations 6
smoothSolver:  Solving for Uy, Initial residual = 0.00496925, Final residual = 0.000361676, No Iterations 6
GAMG:  Solving for p, Initial residual = 0.00679557, Final residual = 0.00041687, No Iterations 2
time step continuity errors : sum local = 0.000916978, global = 0.000105447, cumulative = 0.0163369
smoothSolver:  Solving for omega, Initial residual = 0.000581396, Final residual = 4.15744e-05, No Iterations 5
smoothSolver:  Solving for k, Initial residual = 0.00696714, Final residual = 0.000547012, No Iterations 6
ExecutionTime = 1.22 s  ClockTime = 1 s

scalarTransport execute: age
smoothSolver:  Solving for age, Initial residual = 0.00897572, Final residual = 0.000844805, No Iterations 14

Time = 94

smoothSolver:  Solving for Ux, Initial residual = 0.00864821, Final residual = 0.000609193, No Iterations 6
smoothSolver:  Solving for Uy, Initial residual = 0.00479314, Final residual = 0.00034634, No Iterations 6
GAMG:  Solving for p, Initial residual = 0.00665135, Final residual = 0.000412559, No Iterations 2
time step continuity errors : sum local = 0.000904211, global = 0.000105195, cumulative = 0.0164421
smoothSolver:  Solving for omega, Initial residual = 0.000566463, Final residual = 4.03518e-05, No Iterations 5
smoothSolver:  Solving for k, Initial residual = 0.00677278, Final residual = 0.000531419, No Iterations 6
ExecutionTime = 1.23 s  ClockTime = 1 s

scalarTransport execute: age
smoothSolver:  Solving for age, Initial residual = 0.00865333, Final residual = 0.000775618, No Iterations 14

Time = 95

smoothSolver:  Solving for Ux, Initial residual = 0.00840592, Final residual = 0.000591872, No Iterations 6
smoothSolver:  Solving for Uy, Initial residual = 0.00461914, Final residual = 0.000331116, No Iterations 6
GAMG:  Solving for p, Initial residual = 0.00650806, Final residual = 0.000406275, No Iterations 2
time step continuity errors : sum local = 0.000887678, global = 0.000105227, cumulative = 0.0165474
smoothSolver:  Solving for omega, Initial residual = 0.000551795, Final residual = 3.91899e-05, No Iterations 5
smoothSolver:  Solving for k, Initial residual = 0.00658043, Final residual = 0.00051599, No Iterations 6
ExecutionTime = 1.24 s  ClockTime = 1 s

scalarTransport execute: age
smoothSolver:  Solving for age, Initial residual = 0.00827359, Final residual = 0.000810453, No Iterations 13

Time = 96

smoothSolver:  Solving for Ux, Initial residual = 0.00815288, Final residual = 0.000574043, No Iterations 6
[...]

Time = 481

smoothSolver:  Solving for Ux, Initial residual = 9.521e-07, Final residual = 8.62161e-08, No Iterations 5
smoothSolver:  Solving for Uy, Initial residual = 6.70824e-07, Final residual = 5.94379e-08, No Iterations 5
GAMG:  Solving for p, Initial residual = 2.674e-06, Final residual = 1.34403e-07, No Iterations 2
time step continuity errors : sum local = 2.91397e-07, global = 5.40955e-09, cumulative = 0.0214278
smoothSolver:  Solving for omega, Initial residual = 1.05172e-07, Final residual = 1.03936e-08, No Iterations 4
smoothSolver:  Solving for k, Initial residual = 2.86699e-07, Final residual = 2.82519e-08, No Iterations 5
ExecutionTime = 6.06 s  ClockTime = 6 s

scalarTransport execute: age
smoothSolver:  Solving for age, Initial residual = 0.000343458, Final residual = 3.15922e-05, No Iterations 15

Time = 482

smoothSolver:  Solving for Ux, Initial residual = 9.11172e-07, Final residual = 8.23911e-08, No Iterations 5
smoothSolver:  Solving for Uy, Initial residual = 6.43773e-07, Final residual = 5.69845e-08, No Iterations 5
GAMG:  Solving for p, Initial residual = 2.57218e-06, Final residual = 1.30112e-07, No Iterations 2
time step continuity errors : sum local = 2.82094e-07, global = 6.21098e-09, cumulative = 0.0214278
smoothSolver:  Solving for omega, Initial residual = 1.00522e-07, Final residual = 1.00232e-08, No Iterations 4
smoothSolver:  Solving for k, Initial residual = 2.80098e-07, Final residual = 2.77452e-08, No Iterations 5
ExecutionTime = 6.07 s  ClockTime = 6 s

scalarTransport execute: age
smoothSolver:  Solving for age, Initial residual = 0.000342617, Final residual = 3.15157e-05, No Iterations 15

Time = 483

smoothSolver:  Solving for Ux, Initial residual = 8.72306e-07, Final residual = 7.88243e-08, No Iterations 5
smoothSolver:  Solving for Uy, Initial residual = 6.19856e-07, Final residual = 5.49329e-08, No Iterations 5
GAMG:  Solving for p, Initial residual = 2.47826e-06, Final residual = 1.26237e-07, No Iterations 2
time step continuity errors : sum local = 2.73692e-07, global = 6.69325e-09, cumulative = 0.0214278
smoothSolver:  Solving for omega, Initial residual = 9.71648e-08, Final residual = 9.65942e-09, No Iterations 4
smoothSolver:  Solving for k, Initial residual = 2.73897e-07, Final residual = 2.7259e-08, No Iterations 5
ExecutionTime = 6.08 s  ClockTime = 6 s

scalarTransport execute: age
smoothSolver:  Solving for age, Initial residual = 0.00034178, Final residual = 3.14396e-05, No Iterations 15

Time = 484

smoothSolver:  Solving for Ux, Initial residual = 8.35063e-07, Final residual = 7.53851e-08, No Iterations 5
smoothSolver:  Solving for Uy, Initial residual = 5.95057e-07, Final residual = 5.2712e-08, No Iterations 5
GAMG:  Solving for p, Initial residual = 2.38302e-06, Final residual = 1.21683e-07, No Iterations 2
time step continuity errors : sum local = 2.63818e-07, global = 6.39352e-09, cumulative = 0.0214278
smoothSolver:  Solving for omega, Initial residual = 9.37452e-08, Final residual = 9.31004e-09, No Iterations 4
smoothSolver:  Solving for k, Initial residual = 2.67863e-07, Final residual = 1.71815e-08, No Iterations 6
ExecutionTime = 6.09 s  ClockTime = 6 s

scalarTransport execute: age
smoothSolver:  Solving for age, Initial residual = 0.000340946, Final residual = 3.13639e-05, No Iterations 15

Time = 485

smoothSolver:  Solving for Ux, Initial residual = 7.98158e-07, Final residual = 7.19393e-08, No Iterations 5
smoothSolver:  Solving for Uy, Initial residual = 5.71019e-07, Final residual = 5.05623e-08, No Iterations 5
GAMG:  Solving for p, Initial residual = 2.28915e-06, Final residual = 1.1672e-07, No Iterations 2
time step continuity errors : sum local = 2.53058e-07, global = 6.20762e-09, cumulative = 0.0214278
smoothSolver:  Solving for omega, Initial residual = 9.03099e-08, Final residual = 8.98413e-09, No Iterations 4
smoothSolver:  Solving for k, Initial residual = 2.61659e-07, Final residual = 1.68862e-08, No Iterations 6
ExecutionTime = 6.11 s  ClockTime = 6 s

scalarTransport execute: age
smoothSolver:  Solving for age, Initial residual = 0.000340115, Final residual = 3.12886e-05, No Iterations 15

Time = 486

smoothSolver:  Solving for Ux, Initial residual = 7.61975e-07, Final residual = 6.85786e-08, No Iterations 5
smoothSolver:  Solving for Uy, Initial residual = 5.47722e-07, Final residual = 4.84835e-08, No Iterations 5
GAMG:  Solving for p, Initial residual = 2.19726e-06, Final residual = 1.10729e-07, No Iterations 2
time step continuity errors : sum local = 2.4007e-07, global = 4.50337e-09, cumulative = 0.0214278
smoothSolver:  Solving for omega, Initial residual = 8.7425e-08, Final residual = 8.6675e-09, No Iterations 4
smoothSolver:  Solving for k, Initial residual = 2.55826e-07, Final residual = 1.66123e-08, No Iterations 6
ExecutionTime = 6.12 s  ClockTime = 6 s

scalarTransport execute: age
smoothSolver:  Solving for age, Initial residual = 0.000339286, Final residual = 3.12136e-05, No Iterations 15

Time = 487

smoothSolver:  Solving for Ux, Initial residual = 7.25955e-07, Final residual = 6.51906e-08, No Iterations 5
smoothSolver:  Solving for Uy, Initial residual = 5.24468e-07, Final residual = 4.63788e-08, No Iterations 5
GAMG:  Solving for p, Initial residual = 2.10914e-06, Final residual = 1.07206e-07, No Iterations 2
time step continuity errors : sum local = 2.32432e-07, global = 5.04589e-09, cumulative = 0.0214278
smoothSolver:  Solving for omega, Initial residual = 8.33789e-08, Final residual = 8.35077e-09, No Iterations 4
smoothSolver:  Solving for k, Initial residual = 2.50066e-07, Final residual = 1.63511e-08, No Iterations 6
ExecutionTime = 6.13 s  ClockTime = 6 s

scalarTransport execute: age
smoothSolver:  Solving for age, Initial residual = 0.000338463, Final residual = 3.11391e-05, No Iterations 15

Time = 488

smoothSolver:  Solving for Ux, Initial residual = 6.91634e-07, Final residual = 6.20346e-08, No Iterations 5
smoothSolver:  Solving for Uy, Initial residual = 5.03642e-07, Final residual = 4.46023e-08, No Iterations 5
GAMG:  Solving for p, Initial residual = 2.02709e-06, Final residual = 1.03915e-07, No Iterations 2
time step continuity errors : sum local = 2.25298e-07, global = 5.22567e-09, cumulative = 0.0214279
smoothSolver:  Solving for omega, Initial residual = 8.05102e-08, Final residual = 8.03784e-09, No Iterations 4
smoothSolver:  Solving for k, Initial residual = 2.44751e-07, Final residual = 1.61026e-08, No Iterations 6
ExecutionTime = 6.15 s  ClockTime = 6 s

scalarTransport execute: age
smoothSolver:  Solving for age, Initial residual = 0.000337643, Final residual = 3.10649e-05, No Iterations 15

Time = 489

smoothSolver:  Solving for Ux, Initial residual = 6.58829e-07, Final residual = 5.90006e-08, No Iterations 5
smoothSolver:  Solving for Uy, Initial residual = 4.82101e-07, Final residual = 4.2669e-08, No Iterations 5
GAMG:  Solving for p, Initial residual = 1.94327e-06, Final residual = 9.99622e-08, No Iterations 2
time step continuity errors : sum local = 2.16727e-07, global = 5.38215e-09, cumulative = 0.0214279
smoothSolver:  Solving for omega, Initial residual = 7.73445e-08, Final residual = 7.73499e-09, No Iterations 4
smoothSolver:  Solving for k, Initial residual = 2.39693e-07, Final residual = 1.58651e-08, No Iterations 6
ExecutionTime = 6.16 s  ClockTime = 6 s

scalarTransport execute: age
smoothSolver:  Solving for age, Initial residual = 0.000336826, Final residual = 3.09911e-05, No Iterations 15

Time = 490

smoothSolver:  Solving for Ux, Initial residual = 6.27079e-07, Final residual = 5.60627e-08, No Iterations 5
smoothSolver:  Solving for Uy, Initial residual = 4.61058e-07, Final residual = 4.07672e-08, No Iterations 5
GAMG:  Solving for p, Initial residual = 1.85889e-06, Final residual = 9.56095e-08, No Iterations 2
time step continuity errors : sum local = 2.07291e-07, global = 4.93678e-09, cumulative = 0.0214279
smoothSolver:  Solving for omega, Initial residual = 7.44654e-08, Final residual = 7.43933e-09, No Iterations 4
smoothSolver:  Solving for k, Initial residual = 2.35033e-07, Final residual = 1.5638e-08, No Iterations 6
ExecutionTime = 6.17 s  ClockTime = 6 s

scalarTransport execute: age
smoothSolver:  Solving for age, Initial residual = 0.000336014, Final residual = 3.09177e-05, No Iterations 15

Time = 491

smoothSolver:  Solving for Ux, Initial residual = 5.96145e-07, Final residual = 5.32092e-08, No Iterations 5
smoothSolver:  Solving for Uy, Initial residual = 4.40675e-07, Final residual = 3.89378e-08, No Iterations 5
GAMG:  Solving for p, Initial residual = 1.77817e-06, Final residual = 9.13651e-08, No Iterations 2
time step continuity errors : sum local = 1.98088e-07, global = 5.13781e-09, cumulative = 0.0214279
smoothSolver:  Solving for omega, Initial residual = 7.12394e-08, Final residual = 7.14946e-09, No Iterations 4
smoothSolver:  Solving for k, Initial residual = 2.30544e-07, Final residual = 1.54205e-08, No Iterations 6
ExecutionTime = 6.18 s  ClockTime = 6 s

scalarTransport execute: age
smoothSolver:  Solving for age, Initial residual = 0.000335204, Final residual = 3.08446e-05, No Iterations 15

Time = 492

smoothSolver:  Solving for Ux, Initial residual = 5.6606e-07, Final residual = 5.0431e-08, No Iterations 5
smoothSolver:  Solving for Uy, Initial residual = 4.21353e-07, Final residual = 3.72117e-08, No Iterations 5
GAMG:  Solving for p, Initial residual = 1.7014e-06, Final residual = 8.64989e-08, No Iterations 2
time step continuity errors : sum local = 1.87538e-07, global = 3.54012e-09, cumulative = 0.0214279
smoothSolver:  Solving for omega, Initial residual = 6.88732e-08, Final residual = 6.87222e-09, No Iterations 4
smoothSolver:  Solving for k, Initial residual = 2.26464e-07, Final residual = 1.52131e-08, No Iterations 6
ExecutionTime = 6.2 s  ClockTime = 6 s

scalarTransport execute: age
smoothSolver:  Solving for age, Initial residual = 0.000334397, Final residual = 3.07716e-05, No Iterations 15

Time = 493

smoothSolver:  Solving for Ux, Initial residual = 5.36291e-07, Final residual = 4.76558e-08, No Iterations 5
smoothSolver:  Solving for Uy, Initial residual = 4.01479e-07, Final residual = 3.54211e-08, No Iterations 5
GAMG:  Solving for p, Initial residual = 1.62769e-06, Final residual = 8.34982e-08, No Iterations 2
time step continuity errors : sum local = 1.81032e-07, global = 3.61165e-09, cumulative = 0.0214279
smoothSolver:  Solving for omega, Initial residual = 6.53825e-08, Final residual = 6.59778e-09, No Iterations 4
smoothSolver:  Solving for k, Initial residual = 2.22365e-07, Final residual = 1.50094e-08, No Iterations 6
ExecutionTime = 6.21 s  ClockTime = 6 s

scalarTransport execute: age
smoothSolver:  Solving for age, Initial residual = 0.000333594, Final residual = 3.06991e-05, No Iterations 15

Time = 494

smoothSolver:  Solving for Ux, Initial residual = 5.08028e-07, Final residual = 4.50662e-08, No Iterations 5
smoothSolver:  Solving for Uy, Initial residual = 3.83898e-07, Final residual = 3.39046e-08, No Iterations 5
GAMG:  Solving for p, Initial residual = 1.55989e-06, Final residual = 8.05913e-08, No Iterations 2
time step continuity errors : sum local = 1.7473e-07, global = 3.41591e-09, cumulative = 0.0214279
smoothSolver:  Solving for omega, Initial residual = 6.28911e-08, Final residual = 6.32894e-09, No Iterations 4
smoothSolver:  Solving for k, Initial residual = 2.18583e-07, Final residual = 1.48125e-08, No Iterations 6
ExecutionTime = 6.22 s  ClockTime = 6 s

scalarTransport execute: age
smoothSolver:  Solving for age, Initial residual = 0.000332795, Final residual = 3.06269e-05, No Iterations 15

Time = 495

smoothSolver:  Solving for Ux, Initial residual = 4.80949e-07, Final residual = 4.25787e-08, No Iterations 5
smoothSolver:  Solving for Uy, Initial residual = 3.65771e-07, Final residual = 3.22756e-08, No Iterations 5
GAMG:  Solving for p, Initial residual = 1.49033e-06, Final residual = 7.72407e-08, No Iterations 2
time step continuity errors : sum local = 1.67465e-07, global = 3.18113e-09, cumulative = 0.0214279
smoothSolver:  Solving for omega, Initial residual = 6.0217e-08, Final residual = 6.07031e-09, No Iterations 4
smoothSolver:  Solving for k, Initial residual = 2.14926e-07, Final residual = 1.46198e-08, No Iterations 6
ExecutionTime = 6.24 s  ClockTime = 6 s

scalarTransport execute: age
smoothSolver:  Solving for age, Initial residual = 0.000332, Final residual = 3.05551e-05, No Iterations 15

Time = 496

smoothSolver:  Solving for Ux, Initial residual = 4.54809e-07, Final residual = 4.01715e-08, No Iterations 5
smoothSolver:  Solving for Uy, Initial residual = 3.48061e-07, Final residual = 3.06764e-08, No Iterations 5
GAMG:  Solving for p, Initial residual = 1.42119e-06, Final residual = 7.37007e-08, No Iterations 2
time step continuity errors : sum local = 1.5979e-07, global = 2.99352e-09, cumulative = 0.0214279
smoothSolver:  Solving for omega, Initial residual = 5.76266e-08, Final residual = 9.77998e-09, No Iterations 3
smoothSolver:  Solving for k, Initial residual = 2.11562e-07, Final residual = 1.44369e-08, No Iterations 6
ExecutionTime = 6.25 s  ClockTime = 6 s

scalarTransport execute: age
smoothSolver:  Solving for age, Initial residual = 0.00033121, Final residual = 3.04836e-05, No Iterations 15

Time = 497

smoothSolver:  Solving for Ux, Initial residual = 4.28933e-07, Final residual = 3.77901e-08, No Iterations 5
smoothSolver:  Solving for Uy, Initial residual = 3.31247e-07, Final residual = 2.91712e-08, No Iterations 5
GAMG:  Solving for p, Initial residual = 1.35549e-06, Final residual = 7.02809e-08, No Iterations 2
time step continuity errors : sum local = 1.52376e-07, global = 2.77844e-09, cumulative = 0.0214279
smoothSolver:  Solving for omega, Initial residual = 5.62363e-08, Final residual = 9.577e-09, No Iterations 3
smoothSolver:  Solving for k, Initial residual = 2.08337e-07, Final residual = 1.42597e-08, No Iterations 6
ExecutionTime = 6.26 s  ClockTime = 6 s

scalarTransport execute: age
smoothSolver:  Solving for age, Initial residual = 0.000330423, Final residual = 3.04124e-05, No Iterations 15

Time = 498

smoothSolver:  Solving for Ux, Initial residual = 4.0414e-07, Final residual = 3.55005e-08, No Iterations 5
smoothSolver:  Solving for Uy, Initial residual = 3.15022e-07, Final residual = 2.77122e-08, No Iterations 5
GAMG:  Solving for p, Initial residual = 1.29269e-06, Final residual = 6.70665e-08, No Iterations 2
time step continuity errors : sum local = 1.45407e-07, global = 2.58484e-09, cumulative = 0.0214279
smoothSolver:  Solving for omega, Initial residual = 5.45342e-08, Final residual = 9.32931e-09, No Iterations 3
smoothSolver:  Solving for k, Initial residual = 2.0516e-07, Final residual = 1.40826e-08, No Iterations 6
ExecutionTime = 6.27 s  ClockTime = 6 s

scalarTransport execute: age
smoothSolver:  Solving for age, Initial residual = 0.000329639, Final residual = 3.03415e-05, No Iterations 15

Time = 499

smoothSolver:  Solving for Ux, Initial residual = 3.80278e-07, Final residual = 3.32995e-08, No Iterations 5
smoothSolver:  Solving for Uy, Initial residual = 2.99199e-07, Final residual = 2.62943e-08, No Iterations 5
GAMG:  Solving for p, Initial residual = 1.23255e-06, Final residual = 6.40338e-08, No Iterations 2
time step continuity errors : sum local = 1.38832e-07, global = 2.37923e-09, cumulative = 0.0214279
smoothSolver:  Solving for omega, Initial residual = 5.27347e-08, Final residual = 9.05552e-09, No Iterations 3
smoothSolver:  Solving for k, Initial residual = 2.02041e-07, Final residual = 1.39063e-08, No Iterations 6
ExecutionTime = 6.29 s  ClockTime = 6 s

scalarTransport execute: age
smoothSolver:  Solving for age, Initial residual = 0.000328859, Final residual = 3.02706e-05, No Iterations 15

Time = 500

smoothSolver:  Solving for Ux, Initial residual = 3.57406e-07, Final residual = 3.11828e-08, No Iterations 5
smoothSolver:  Solving for Uy, Initial residual = 2.83905e-07, Final residual = 2.49199e-08, No Iterations 5
GAMG:  Solving for p, Initial residual = 1.17469e-06, Final residual = 6.11371e-08, No Iterations 2
time step continuity errors : sum local = 1.32552e-07, global = 2.16261e-09, cumulative = 0.0214279
smoothSolver:  Solving for omega, Initial residual = 5.08718e-08, Final residual = 8.76509e-09, No Iterations 3
smoothSolver:  Solving for k, Initial residual = 1.99014e-07, Final residual = 1.3731e-08, No Iterations 6
ExecutionTime = 6.3 s  ClockTime = 6 s

scalarTransport execute: age
smoothSolver:  Solving for age, Initial residual = 0.000328082, Final residual = 3.01998e-05, No Iterations 15

Time = 501

smoothSolver:  Solving for Ux, Initial residual = 3.35496e-07, Final residual = 2.9154e-08, No Iterations 5
smoothSolver:  Solving for Uy, Initial residual = 2.69132e-07, Final residual = 2.35925e-08, No Iterations 5
GAMG:  Solving for p, Initial residual = 1.11923e-06, Final residual = 5.83458e-08, No Iterations 2
time step continuity errors : sum local = 1.265e-07, global = 1.91497e-09, cumulative = 0.0214279
smoothSolver:  Solving for omega, Initial residual = 4.89921e-08, Final residual = 8.46368e-09, No Iterations 3
smoothSolver:  Solving for k, Initial residual = 1.96078e-07, Final residual = 1.3557e-08, No Iterations 6
ExecutionTime = 6.31 s  ClockTime = 6 s

scalarTransport execute: age
smoothSolver:  Solving for age, Initial residual = 0.000327307, Final residual = 3.01292e-05, No Iterations 15

Time = 502

smoothSolver:  Solving for Ux, Initial residual = 3.14616e-07, Final residual = 2.723e-08, No Iterations 5
smoothSolver:  Solving for Uy, Initial residual = 2.54915e-07, Final residual = 2.2315e-08, No Iterations 5
GAMG:  Solving for p, Initial residual = 1.06644e-06, Final residual = 5.56579e-08, No Iterations 2
time step continuity errors : sum local = 1.20672e-07, global = 1.632e-09, cumulative = 0.0214279
smoothSolver:  Solving for omega, Initial residual = 4.71005e-08, Final residual = 8.15608e-09, No Iterations 3
smoothSolver:  Solving for k, Initial residual = 1.93275e-07, Final residual = 1.33843e-08, No Iterations 6
ExecutionTime = 6.33 s  ClockTime = 6 s

scalarTransport execute: age
smoothSolver:  Solving for age, Initial residual = 0.000326535, Final residual = 3.00587e-05, No Iterations 15

Time = 503

smoothSolver:  Solving for Ux, Initial residual = 2.94907e-07, Final residual = 2.54226e-08, No Iterations 5
smoothSolver:  Solving for Uy, Initial residual = 2.41213e-07, Final residual = 2.10885e-08, No Iterations 5
GAMG:  Solving for p, Initial residual = 1.01598e-06, Final residual = 5.30755e-08, No Iterations 2
time step continuity errors : sum local = 1.15073e-07, global = 1.30479e-09, cumulative = 0.0214279
smoothSolver:  Solving for omega, Initial residual = 4.52264e-08, Final residual = 7.84569e-09, No Iterations 3
smoothSolver:  Solving for k, Initial residual = 1.90605e-07, Final residual = 1.3213e-08, No Iterations 6
ExecutionTime = 6.34 s  ClockTime = 6 s

scalarTransport execute: age
smoothSolver:  Solving for age, Initial residual = 0.000325767, Final residual = 2.99884e-05, No Iterations 15

Time = 504

smoothSolver:  Solving for Ux, Initial residual = 2.76348e-07, Final residual = 2.37181e-08, No Iterations 5
smoothSolver:  Solving for Uy, Initial residual = 2.2805e-07, Final residual = 1.99111e-08, No Iterations 5
GAMG:  Solving for p, Initial residual = 9.67426e-07, Final residual = 5.05981e-08, No Iterations 2
time step continuity errors : sum local = 1.09702e-07, global = 9.32583e-10, cumulative = 0.0214279
smoothSolver:  Solving for omega, Initial residual = 4.33789e-08, Final residual = 7.53486e-09, No Iterations 3
smoothSolver:  Solving for k, Initial residual = 1.88037e-07, Final residual = 1.30427e-08, No Iterations 6
ExecutionTime = 6.35 s  ClockTime = 6 s


SIMPLE solution converged in 504 iterations

scalarTransport execute: age
smoothSolver:  Solving for age, Initial residual = 0.000325001, Final residual = 2.99184e-05, No Iterations 15

End

