/*---------------------------------------------------------------------------*\
| =========                 |                                                 |
| \\      /  F ield         | OpenFOAM: The Open Source CFD Toolbox           |
|  \\    /   O peration     | Version:  v2012                                 |
|   \\  /    A nd           | Website:  www.openfoam.com                      |
|    \\/     M anipulation  |                                                 |
\*---------------------------------------------------------------------------*/
Build  : _7bdb509494-20201222 OPENFOAM=2012
Arch   : "LSB;label=32;scalar=64"
Exec   : simpleFoam
Date   : Feb 23 2023
Time   : 22:55:29
Host   : johnsDesktop
PID    : 17116
I/O    : uncollated
Case   : /home/john/of_runs/cases/dbl_0_46_7-00240_9
nProcs : 1
trapFpe: Floating point exception trapping enabled (FOAM_SIGFPE).
fileModificationChecking : Monitoring run-time modified files using timeStampMaster (fileModificationSkew 5, maxFileModificationPolls 20)
allowSystemOperations : Allowing user-supplied system call operations

// * * * * * * * * * * * * * * * * * * * * * * * * * * * * * * * * * * * * * //
Create time

Create mesh for time = 0


SIMPLE: convergence criteria
    field p	 tolerance 1e-06
    field U	 tolerance 1e-06
    field "(k|epsilon|omega|f|v2|age)"	 tolerance 1e-05

Reading field p

Reading field U

Reading/calculating face flux field phi

Selecting incompressible transport model Newtonian
Selecting turbulence model type RAS
Selecting RAS turbulence model kOmegaSST
Selecting patchDistMethod meshWave
RAS
{
    RASModel        kOmegaSST;
    turbulence      on;
    printCoeffs     on;
    alphaK1         0.85;
    alphaK2         1;
    alphaOmega1     0.5;
    alphaOmega2     0.856;
    gamma1          0.555556;
    gamma2          0.44;
    beta1           0.075;
    beta2           0.0828;
    betaStar        0.09;
    a1              0.31;
    b1              1;
    c1              10;
    F3              false;
    decayControl    false;
    kInf            0;
    omegaInf        0;
}

No MRF models present

No finite volume options present

Starting time loop

Selecting finite volume options type scalarSemiImplicitSource
    Source: unitySource
    - selecting all cells
    - selected 6532 cell(s) with volume 0.03154
Time = 1

smoothSolver:  Solving for Ux, Initial residual = 0, Final residual = 0, No Iterations 0
smoothSolver:  Solving for Uy, Initial residual = 1, Final residual = 0.0704402, No Iterations 2
GAMG:  Solving for p, Initial residual = 1, Final residual = 0.0836005, No Iterations 6
time step continuity errors : sum local = 0.00530124, global = -0.000787182, cumulative = -0.000787182
smoothSolver:  Solving for omega, Initial residual = 0.257803, Final residual = 0.0120925, No Iterations 3
smoothSolver:  Solving for k, Initial residual = 1, Final residual = 0.0788414, No Iterations 3
ExecutionTime = 0.07 s  ClockTime = 0 s

scalarTransport execute: age
smoothSolver:  Solving for age, Initial residual = 1, Final residual = 0.0899157, No Iterations 6

Time = 2

smoothSolver:  Solving for Ux, Initial residual = 0.562992, Final residual = 0.0478399, No Iterations 6
smoothSolver:  Solving for Uy, Initial residual = 0.280399, Final residual = 0.0194125, No Iterations 6
GAMG:  Solving for p, Initial residual = 0.0515777, Final residual = 0.00435141, No Iterations 3
time step continuity errors : sum local = 0.0606422, global = 0.00458016, cumulative = 0.00379297
smoothSolver:  Solving for omega, Initial residual = 0.259725, Final residual = 0.0238022, No Iterations 3
smoothSolver:  Solving for k, Initial residual = 0.596817, Final residual = 0.0546512, No Iterations 4
ExecutionTime = 0.07 s  ClockTime = 0 s

scalarTransport execute: age
smoothSolver:  Solving for age, Initial residual = 0.603775, Final residual = 0.0559187, No Iterations 8

Time = 3

smoothSolver:  Solving for Ux, Initial residual = 0.194535, Final residual = 0.0184177, No Iterations 5
smoothSolver:  Solving for Uy, Initial residual = 0.106023, Final residual = 0.00933615, No Iterations 5
GAMG:  Solving for p, Initial residual = 0.0544538, Final residual = 0.00352197, No Iterations 3
time step continuity errors : sum local = 0.020401, global = 0.00314852, cumulative = 0.0069415
smoothSolver:  Solving for omega, Initial residual = 0.256264, Final residual = 0.02423, No Iterations 4
smoothSolver:  Solving for k, Initial residual = 0.502021, Final residual = 0.0371255, No Iterations 5
ExecutionTime = 0.1 s  ClockTime = 0 s

scalarTransport execute: age
smoothSolver:  Solving for age, Initial residual = 0.407702, Final residual = 0.0360884, No Iterations 9

Time = 4

smoothSolver:  Solving for Ux, Initial residual = 0.0985749, Final residual = 0.00686483, No Iterations 5
smoothSolver:  Solving for Uy, Initial residual = 0.0514643, Final residual = 0.00503715, No Iterations 4
GAMG:  Solving for p, Initial residual = 0.076073, Final residual = 0.00312549, No Iterations 3
time step continuity errors : sum local = 0.0101708, global = 0.000641211, cumulative = 0.00758271
smoothSolver:  Solving for omega, Initial residual = 0.144187, Final residual = 0.00972989, No Iterations 5
smoothSolver:  Solving for k, Initial residual = 0.425085, Final residual = 0.0354691, No Iterations 5
ExecutionTime = 0.11 s  ClockTime = 0 s

scalarTransport execute: age
smoothSolver:  Solving for age, Initial residual = 0.297969, Final residual = 0.0269584, No Iterations 8

Time = 5

smoothSolver:  Solving for Ux, Initial residual = 0.0602478, Final residual = 0.0050404, No Iterations 5
smoothSolver:  Solving for Uy, Initial residual = 0.0326563, Final residual = 0.00228259, No Iterations 5
GAMG:  Solving for p, Initial residual = 0.0775699, Final residual = 0.00329578, No Iterations 2
time step continuity errors : sum local = 0.00860536, global = -0.000337247, cumulative = 0.00724546
smoothSolver:  Solving for omega, Initial residual = 0.100341, Final residual = 0.00741901, No Iterations 5
smoothSolver:  Solving for k, Initial residual = 0.330211, Final residual = 0.0297991, No Iterations 5
ExecutionTime = 0.12 s  ClockTime = 0 s

scalarTransport execute: age
smoothSolver:  Solving for age, Initial residual = 0.223941, Final residual = 0.0197397, No Iterations 9

Time = 6

smoothSolver:  Solving for Ux, Initial residual = 0.0418963, Final residual = 0.00277339, No Iterations 6
smoothSolver:  Solving for Uy, Initial residual = 0.0245471, Final residual = 0.00197796, No Iterations 5
GAMG:  Solving for p, Initial residual = 0.0626332, Final residual = 0.00289681, No Iterations 2
time step continuity errors : sum local = 0.0076804, global = -0.00107022, cumulative = 0.00617524
smoothSolver:  Solving for omega, Initial residual = 0.0787101, Final residual = 0.00623833, No Iterations 5
smoothSolver:  Solving for k, Initial residual = 0.265164, Final residual = 0.0254151, No Iterations 5
ExecutionTime = 0.13 s  ClockTime = 0 s

scalarTransport execute: age
smoothSolver:  Solving for age, Initial residual = 0.172872, Final residual = 0.0148445, No Iterations 10

Time = 7

smoothSolver:  Solving for Ux, Initial residual = 0.0348919, Final residual = 0.00231467, No Iterations 6
smoothSolver:  Solving for Uy, Initial residual = 0.0206838, Final residual = 0.00177295, No Iterations 5
GAMG:  Solving for p, Initial residual = 0.0507168, Final residual = 0.00342931, No Iterations 2
time step continuity errors : sum local = 0.00925214, global = -0.0012805, cumulative = 0.00489473
smoothSolver:  Solving for omega, Initial residual = 0.0602606, Final residual = 0.0051212, No Iterations 5
smoothSolver:  Solving for k, Initial residual = 0.220183, Final residual = 0.022006, No Iterations 5
ExecutionTime = 0.15 s  ClockTime = 0 s

scalarTransport execute: age
smoothSolver:  Solving for age, Initial residual = 0.141001, Final residual = 0.0132477, No Iterations 10

Time = 8

smoothSolver:  Solving for Ux, Initial residual = 0.0293748, Final residual = 0.0027914, No Iterations 5
smoothSolver:  Solving for Uy, Initial residual = 0.0182911, Final residual = 0.00162268, No Iterations 5
GAMG:  Solving for p, Initial residual = 0.0405118, Final residual = 0.00324048, No Iterations 2
time step continuity errors : sum local = 0.00914717, global = -0.000926958, cumulative = 0.00396777
smoothSolver:  Solving for omega, Initial residual = 0.0483747, Final residual = 0.00426784, No Iterations 5
smoothSolver:  Solving for k, Initial residual = 0.187714, Final residual = 0.0123207, No Iterations 6
ExecutionTime = 0.16 s  ClockTime = 0 s

scalarTransport execute: age
smoothSolver:  Solving for age, Initial residual = 0.120232, Final residual = 0.0103208, No Iterations 11

Time = 9

smoothSolver:  Solving for Ux, Initial residual = 0.027504, Final residual = 0.00264054, No Iterations 5
smoothSolver:  Solving for Uy, Initial residual = 0.0169131, Final residual = 0.00146738, No Iterations 5
GAMG:  Solving for p, Initial residual = 0.0314037, Final residual = 0.0010876, No Iterations 2
time step continuity errors : sum local = 0.00328087, global = -0.000786207, cumulative = 0.00318157
smoothSolver:  Solving for omega, Initial residual = 0.0403911, Final residual = 0.00366485, No Iterations 5
smoothSolver:  Solving for k, Initial residual = 0.163371, Final residual = 0.0110518, No Iterations 6
ExecutionTime = 0.17 s  ClockTime = 0 s

scalarTransport execute: age
smoothSolver:  Solving for age, Initial residual = 0.104979, Final residual = 0.00920587, No Iterations 11

Time = 10

smoothSolver:  Solving for Ux, Initial residual = 0.0244254, Final residual = 0.00242851, No Iterations 5
smoothSolver:  Solving for Uy, Initial residual = 0.0155, Final residual = 0.00142283, No Iterations 5
GAMG:  Solving for p, Initial residual = 0.0264787, Final residual = 0.000862322, No Iterations 2
time step continuity errors : sum local = 0.00264344, global = -0.000614556, cumulative = 0.00256701
smoothSolver:  Solving for omega, Initial residual = 0.0339757, Final residual = 0.00316816, No Iterations 5
smoothSolver:  Solving for k, Initial residual = 0.144335, Final residual = 0.0100094, No Iterations 6
ExecutionTime = 0.19 s  ClockTime = 0 s

scalarTransport execute: age
smoothSolver:  Solving for age, Initial residual = 0.0921498, Final residual = 0.00823529, No Iterations 11

Time = 11

smoothSolver:  Solving for Ux, Initial residual = 0.0229805, Final residual = 0.00152793, No Iterations 6
smoothSolver:  Solving for Uy, Initial residual = 0.0147202, Final residual = 0.00138375, No Iterations 5
GAMG:  Solving for p, Initial residual = 0.0236011, Final residual = 0.000848237, No Iterations 2
time step continuity errors : sum local = 0.0026379, global = -0.000437632, cumulative = 0.00212938
smoothSolver:  Solving for omega, Initial residual = 0.0288802, Final residual = 0.00275542, No Iterations 5
smoothSolver:  Solving for k, Initial residual = 0.129135, Final residual = 0.00913825, No Iterations 6
ExecutionTime = 0.2 s  ClockTime = 0 s

scalarTransport execute: age
smoothSolver:  Solving for age, Initial residual = 0.0811768, Final residual = 0.00745229, No Iterations 11

Time = 12

smoothSolver:  Solving for Ux, Initial residual = 0.0216487, Final residual = 0.00145503, No Iterations 6
smoothSolver:  Solving for Uy, Initial residual = 0.0141015, Final residual = 0.00135563, No Iterations 5
GAMG:  Solving for p, Initial residual = 0.0217235, Final residual = 0.000855025, No Iterations 2
time step continuity errors : sum local = 0.00268606, global = -0.000268355, cumulative = 0.00186102
smoothSolver:  Solving for omega, Initial residual = 0.0248585, Final residual = 0.00241501, No Iterations 5
smoothSolver:  Solving for k, Initial residual = 0.116753, Final residual = 0.0084026, No Iterations 6
ExecutionTime = 0.21 s  ClockTime = 0 s

scalarTransport execute: age
smoothSolver:  Solving for age, Initial residual = 0.0715788, Final residual = 0.00682408, No Iterations 11

Time = 13

smoothSolver:  Solving for Ux, Initial residual = 0.0204433, Final residual = 0.00138309, No Iterations 6
smoothSolver:  Solving for Uy, Initial residual = 0.0135783, Final residual = 0.00133035, No Iterations 5
GAMG:  Solving for p, Initial residual = 0.0204229, Final residual = 0.000842124, No Iterations 2
time step continuity errors : sum local = 0.0026555, global = -0.000104719, cumulative = 0.0017563
smoothSolver:  Solving for omega, Initial residual = 0.0216055, Final residual = 0.00213049, No Iterations 5
smoothSolver:  Solving for k, Initial residual = 0.106497, Final residual = 0.00777296, No Iterations 6
ExecutionTime = 0.22 s  ClockTime = 0 s

scalarTransport execute: age
smoothSolver:  Solving for age, Initial residual = 0.0627447, Final residual = 0.00624585, No Iterations 11

Time = 14

smoothSolver:  Solving for Ux, Initial residual = 0.0193442, Final residual = 0.001312, No Iterations 6
smoothSolver:  Solving for Uy, Initial residual = 0.0131782, Final residual = 0.00130793, No Iterations 5
GAMG:  Solving for p, Initial residual = 0.0193946, Final residual = 0.000819617, No Iterations 2
time step continuity errors : sum local = 0.00258767, global = 5.18463e-05, cumulative = 0.00180815
smoothSolver:  Solving for omega, Initial residual = 0.0189614, Final residual = 0.00189138, No Iterations 5
smoothSolver:  Solving for k, Initial residual = 0.0978542, Final residual = 0.00722759, No Iterations 6
ExecutionTime = 0.24 s  ClockTime = 0 s

scalarTransport execute: age
smoothSolver:  Solving for age, Initial residual = 0.0544423, Final residual = 0.00476552, No Iterations 12

Time = 15

smoothSolver:  Solving for Ux, Initial residual = 0.0182935, Final residual = 0.00123983, No Iterations 6
smoothSolver:  Solving for Uy, Initial residual = 0.0128753, Final residual = 0.000841782, No Iterations 6
GAMG:  Solving for p, Initial residual = 0.0184934, Final residual = 0.000787447, No Iterations 2
time step continuity errors : sum local = 0.00248447, global = 0.000193888, cumulative = 0.00200204
smoothSolver:  Solving for omega, Initial residual = 0.0167778, Final residual = 0.00108068, No Iterations 6
smoothSolver:  Solving for k, Initial residual = 0.0902816, Final residual = 0.00673834, No Iterations 6
ExecutionTime = 0.25 s  ClockTime = 0 s

scalarTransport execute: age
smoothSolver:  Solving for age, Initial residual = 0.047013, Final residual = 0.00422144, No Iterations 12

Time = 16

smoothSolver:  Solving for Ux, Initial residual = 0.0173466, Final residual = 0.00117297, No Iterations 6
smoothSolver:  Solving for Uy, Initial residual = 0.0125587, Final residual = 0.00082494, No Iterations 6
GAMG:  Solving for p, Initial residual = 0.0177759, Final residual = 0.000777061, No Iterations 2
time step continuity errors : sum local = 0.00243982, global = 0.000306642, cumulative = 0.00230868
smoothSolver:  Solving for omega, Initial residual = 0.0148202, Final residual = 0.000964637, No Iterations 6
smoothSolver:  Solving for k, Initial residual = 0.0836572, Final residual = 0.0063026, No Iterations 6
ExecutionTime = 0.26 s  ClockTime = 0 s

scalarTransport execute: age
smoothSolver:  Solving for age, Initial residual = 0.0407906, Final residual = 0.00374093, No Iterations 12

Time = 17

smoothSolver:  Solving for Ux, Initial residual = 0.0164182, Final residual = 0.00110713, No Iterations 6
smoothSolver:  Solving for Uy, Initial residual = 0.0123225, Final residual = 0.000810646, No Iterations 6
GAMG:  Solving for p, Initial residual = 0.0171262, Final residual = 0.000796075, No Iterations 2
time step continuity errors : sum local = 0.00248025, global = 0.000377596, cumulative = 0.00268628
smoothSolver:  Solving for omega, Initial residual = 0.0132003, Final residual = 0.000866022, No Iterations 6
smoothSolver:  Solving for k, Initial residual = 0.077937, Final residual = 0.00591789, No Iterations 6
ExecutionTime = 0.28 s  ClockTime = 0 s

scalarTransport execute: age
smoothSolver:  Solving for age, Initial residual = 0.0358344, Final residual = 0.00332157, No Iterations 12

Time = 18

smoothSolver:  Solving for Ux, Initial residual = 0.0155251, Final residual = 0.0010442, No Iterations 6
smoothSolver:  Solving for Uy, Initial residual = 0.0121465, Final residual = 0.000798474, No Iterations 6
GAMG:  Solving for p, Initial residual = 0.0166005, Final residual = 0.000827623, No Iterations 2
time step continuity errors : sum local = 0.00255262, global = 0.000413885, cumulative = 0.00310016
smoothSolver:  Solving for omega, Initial residual = 0.0118425, Final residual = 0.000781577, No Iterations 6
smoothSolver:  Solving for k, Initial residual = 0.0729435, Final residual = 0.00557626, No Iterations 6
ExecutionTime = 0.29 s  ClockTime = 0 s

scalarTransport execute: age
smoothSolver:  Solving for age, Initial residual = 0.0316565, Final residual = 0.00295455, No Iterations 12

Time = 19

smoothSolver:  Solving for Ux, Initial residual = 0.0146921, Final residual = 0.000986674, No Iterations 6
smoothSolver:  Solving for Uy, Initial residual = 0.0119581, Final residual = 0.000786463, No Iterations 6
GAMG:  Solving for p, Initial residual = 0.0161118, Final residual = 0.000813965, No Iterations 2
time step continuity errors : sum local = 0.00248152, global = 0.00042182, cumulative = 0.00352198
smoothSolver:  Solving for omega, Initial residual = 0.0106924, Final residual = 0.000708729, No Iterations 6
smoothSolver:  Solving for k, Initial residual = 0.0685368, Final residual = 0.0052698, No Iterations 6
ExecutionTime = 0.3 s  ClockTime = 0 s

scalarTransport execute: age
smoothSolver:  Solving for age, Initial residual = 0.0282969, Final residual = 0.00263079, No Iterations 12

Time = 20

smoothSolver:  Solving for Ux, Initial residual = 0.0139358, Final residual = 0.000935699, No Iterations 6
smoothSolver:  Solving for Uy, Initial residual = 0.0117705, Final residual = 0.000774134, No Iterations 6
GAMG:  Solving for p, Initial residual = 0.0156449, Final residual = 0.000775409, No Iterations 2
time step continuity errors : sum local = 0.00233487, global = 0.000412061, cumulative = 0.00393404
smoothSolver:  Solving for omega, Initial residual = 0.00970423, Final residual = 0.000645338, No Iterations 6
smoothSolver:  Solving for k, Initial residual = 0.0646139, Final residual = 0.00499326, No Iterations 6
ExecutionTime = 0.32 s  ClockTime = 0 s

scalarTransport execute: age
smoothSolver:  Solving for age, Initial residual = 0.0252306, Final residual = 0.00233927, No Iterations 12

Time = 21

smoothSolver:  Solving for Ux, Initial residual = 0.013244, Final residual = 0.000889056, No Iterations 6
smoothSolver:  Solving for Uy, Initial residual = 0.0115616, Final residual = 0.000761251, No Iterations 6
GAMG:  Solving for p, Initial residual = 0.0151447, Final residual = 0.000732927, No Iterations 2
time step continuity errors : sum local = 0.00218071, global = 0.000394788, cumulative = 0.00432883
smoothSolver:  Solving for omega, Initial residual = 0.00884676, Final residual = 0.000589907, No Iterations 6
smoothSolver:  Solving for k, Initial residual = 0.0610936, Final residual = 0.00474183, No Iterations 6
ExecutionTime = 0.33 s  ClockTime = 0 s

scalarTransport execute: age
smoothSolver:  Solving for age, Initial residual = 0.022628, Final residual = 0.00207367, No Iterations 12

Time = 22

smoothSolver:  Solving for Ux, Initial residual = 0.0126237, Final residual = 0.000846741, No Iterations 6
smoothSolver:  Solving for Uy, Initial residual = 0.0113347, Final residual = 0.000747754, No Iterations 6
GAMG:  Solving for p, Initial residual = 0.0145761, Final residual = 0.000697824, No Iterations 2
time step continuity errors : sum local = 0.00205391, global = 0.00037574, cumulative = 0.00470457
smoothSolver:  Solving for omega, Initial residual = 0.00810185, Final residual = 0.000541153, No Iterations 6
smoothSolver:  Solving for k, Initial residual = 0.0579178, Final residual = 0.00451237, No Iterations 6
ExecutionTime = 0.34 s  ClockTime = 0 s

scalarTransport execute: age
smoothSolver:  Solving for age, Initial residual = 0.0202621, Final residual = 0.00182407, No Iterations 12

Time = 23

smoothSolver:  Solving for Ux, Initial residual = 0.0120626, Final residual = 0.000807207, No Iterations 6
smoothSolver:  Solving for Uy, Initial residual = 0.0111083, Final residual = 0.000734282, No Iterations 6
GAMG:  Solving for p, Initial residual = 0.0139217, Final residual = 0.00066977, No Iterations 2
time step continuity errors : sum local = 0.00195169, global = 0.000357546, cumulative = 0.00506212
smoothSolver:  Solving for omega, Initial residual = 0.00744748, Final residual = 0.000497997, No Iterations 6
smoothSolver:  Solving for k, Initial residual = 0.0550307, Final residual = 0.00430166, No Iterations 6
ExecutionTime = 0.35 s  ClockTime = 0 s

scalarTransport execute: age
smoothSolver:  Solving for age, Initial residual = 0.0183243, Final residual = 0.00159644, No Iterations 12

Time = 24

smoothSolver:  Solving for Ux, Initial residual = 0.0115406, Final residual = 0.00077149, No Iterations 6
smoothSolver:  Solving for Uy, Initial residual = 0.0108737, Final residual = 0.000720596, No Iterations 6
GAMG:  Solving for p, Initial residual = 0.0132135, Final residual = 0.00064857, No Iterations 2
time step continuity errors : sum local = 0.00187119, global = 0.000341575, cumulative = 0.00540369
smoothSolver:  Solving for omega, Initial residual = 0.00683936, Final residual = 0.000458996, No Iterations 6
smoothSolver:  Solving for k, Initial residual = 0.0523945, Final residual = 0.0041075, No Iterations 6
ExecutionTime = 0.37 s  ClockTime = 0 s

scalarTransport execute: age
smoothSolver:  Solving for age, Initial residual = 0.0166691, Final residual = 0.00162626, No Iterations 11

Time = 25

smoothSolver:  Solving for Ux, Initial residual = 0.0110583, Final residual = 0.000739219, No Iterations 6
smoothSolver:  Solving for Uy, Initial residual = 0.0106332, Final residual = 0.000706215, No Iterations 6
GAMG:  Solving for p, Initial residual = 0.0124885, Final residual = 0.000626884, No Iterations 2
time step continuity errors : sum local = 0.00179119, global = 0.000327916, cumulative = 0.00573161
smoothSolver:  Solving for omega, Initial residual = 0.00632573, Final residual = 0.000424561, No Iterations 6
smoothSolver:  Solving for k, Initial residual = 0.0499733, Final residual = 0.00392748, No Iterations 6
ExecutionTime = 0.38 s  ClockTime = 0 s

scalarTransport execute: age
smoothSolver:  Solving for age, Initial residual = 0.0152078, Final residual = 0.00142329, No Iterations 11

Time = 26

smoothSolver:  Solving for Ux, Initial residual = 0.0106267, Final residual = 0.000710659, No Iterations 6
smoothSolver:  Solving for Uy, Initial residual = 0.0103871, Final residual = 0.000690802, No Iterations 6
GAMG:  Solving for p, Initial residual = 0.011819, Final residual = 0.000602748, No Iterations 2
time step continuity errors : sum local = 0.00170657, global = 0.000316007, cumulative = 0.00604761
smoothSolver:  Solving for omega, Initial residual = 0.00587222, Final residual = 0.000393915, No Iterations 6
smoothSolver:  Solving for k, Initial residual = 0.0477342, Final residual = 0.00375956, No Iterations 6
ExecutionTime = 0.39 s  ClockTime = 0 s

scalarTransport execute: age
smoothSolver:  Solving for age, Initial residual = 0.0139652, Final residual = 0.00124082, No Iterations 11

Time = 27

smoothSolver:  Solving for Ux, Initial residual = 0.0102337, Final residual = 0.000685861, No Iterations 6
smoothSolver:  Solving for Uy, Initial residual = 0.0101455, Final residual = 0.000673852, No Iterations 6
GAMG:  Solving for p, Initial residual = 0.0113612, Final residual = 0.000577433, No Iterations 2
time step continuity errors : sum local = 0.00162106, global = 0.000305688, cumulative = 0.0063533
smoothSolver:  Solving for omega, Initial residual = 0.00546295, Final residual = 0.00036633, No Iterations 6
smoothSolver:  Solving for k, Initial residual = 0.0456536, Final residual = 0.00360226, No Iterations 6
ExecutionTime = 0.4 s  ClockTime = 0 s

scalarTransport execute: age
smoothSolver:  Solving for age, Initial residual = 0.012921, Final residual = 0.00109266, No Iterations 11

Time = 28

smoothSolver:  Solving for Ux, Initial residual = 0.0098827, Final residual = 0.0006642, No Iterations 6
smoothSolver:  Solving for Uy, Initial residual = 0.00989895, Final residual = 0.000655322, No Iterations 6
GAMG:  Solving for p, Initial residual = 0.0112217, Final residual = 0.000553716, No Iterations 2
time step continuity errors : sum local = 0.0015425, global = 0.000296989, cumulative = 0.00665029
smoothSolver:  Solving for omega, Initial residual = 0.00509989, Final residual = 0.000341521, No Iterations 6
smoothSolver:  Solving for k, Initial residual = 0.0437064, Final residual = 0.00345414, No Iterations 6
ExecutionTime = 0.42 s  ClockTime = 0 s

scalarTransport execute: age
smoothSolver:  Solving for age, Initial residual = 0.012049, Final residual = 0.00116163, No Iterations 10

Time = 29

smoothSolver:  Solving for Ux, Initial residual = 0.00957872, Final residual = 0.00064579, No Iterations 6
smoothSolver:  Solving for Uy, Initial residual = 0.00964069, Final residual = 0.000634313, No Iterations 6
GAMG:  Solving for p, Initial residual = 0.0112414, Final residual = 0.00053363, No Iterations 2
time step continuity errors : sum local = 0.00147645, global = 0.000290087, cumulative = 0.00694038
smoothSolver:  Solving for omega, Initial residual = 0.00477651, Final residual = 0.000319143, No Iterations 6
smoothSolver:  Solving for k, Initial residual = 0.0418826, Final residual = 0.00331453, No Iterations 6
ExecutionTime = 0.43 s  ClockTime = 0 s

scalarTransport execute: age
smoothSolver:  Solving for age, Initial residual = 0.011356, Final residual = 0.00107487, No Iterations 10

Time = 30

smoothSolver:  Solving for Ux, Initial residual = 0.00934477, Final residual = 0.000630599, No Iterations 6
smoothSolver:  Solving for Uy, Initial residual = 0.00935997, Final residual = 0.000611968, No Iterations 6
GAMG:  Solving for p, Initial residual = 0.0113794, Final residual = 0.000517558, No Iterations 2
time step continuity errors : sum local = 0.00142478, global = 0.000278054, cumulative = 0.00721843
smoothSolver:  Solving for omega, Initial residual = 0.00448693, Final residual = 0.000298861, No Iterations 6
smoothSolver:  Solving for k, Initial residual = 0.0401676, Final residual = 0.0031826, No Iterations 6
ExecutionTime = 0.44 s  ClockTime = 0 s

scalarTransport execute: age
smoothSolver:  Solving for age, Initial residual = 0.0111503, Final residual = 0.00100799, No Iterations 10

Time = 31

smoothSolver:  Solving for Ux, Initial residual = 0.00917716, Final residual = 0.000618458, No Iterations 6
smoothSolver:  Solving for Uy, Initial residual = 0.00906104, Final residual = 0.000906094, No Iterations 5
GAMG:  Solving for p, Initial residual = 0.011273, Final residual = 0.000520515, No Iterations 2
time step continuity errors : sum local = 0.00142, global = 0.000264377, cumulative = 0.00748281
smoothSolver:  Solving for omega, Initial residual = 0.00422345, Final residual = 0.000280387, No Iterations 6
smoothSolver:  Solving for k, Initial residual = 0.0385439, Final residual = 0.00305725, No Iterations 6
ExecutionTime = 0.46 s  ClockTime = 0 s

scalarTransport execute: age
smoothSolver:  Solving for age, Initial residual = 0.0102962, Final residual = 0.000965624, No Iterations 10

Time = 32

smoothSolver:  Solving for Ux, Initial residual = 0.00901503, Final residual = 0.000606123, No Iterations 6
smoothSolver:  Solving for Uy, Initial residual = 0.00879429, Final residual = 0.000875977, No Iterations 5
GAMG:  Solving for p, Initial residual = 0.0110717, Final residual = 0.000521325, No Iterations 2
time step continuity errors : sum local = 0.00141377, global = 0.000251931, cumulative = 0.00773474
smoothSolver:  Solving for omega, Initial residual = 0.00398386, Final residual = 0.000263535, No Iterations 6
smoothSolver:  Solving for k, Initial residual = 0.0370041, Final residual = 0.00293809, No Iterations 6
ExecutionTime = 0.47 s  ClockTime = 0 s

scalarTransport execute: age
smoothSolver:  Solving for age, Initial residual = 0.00981874, Final residual = 0.000940622, No Iterations 10

Time = 33

smoothSolver:  Solving for Ux, Initial residual = 0.00891102, Final residual = 0.000597023, No Iterations 6
smoothSolver:  Solving for Uy, Initial residual = 0.00848194, Final residual = 0.000841095, No Iterations 5
GAMG:  Solving for p, Initial residual = 0.0107631, Final residual = 0.000518107, No Iterations 2
time step continuity errors : sum local = 0.00139785, global = 0.000241787, cumulative = 0.00797653
smoothSolver:  Solving for omega, Initial residual = 0.00376616, Final residual = 0.000248096, No Iterations 6
smoothSolver:  Solving for k, Initial residual = 0.0355401, Final residual = 0.00282464, No Iterations 6
ExecutionTime = 0.48 s  ClockTime = 0 s

scalarTransport execute: age
smoothSolver:  Solving for age, Initial residual = 0.00948516, Final residual = 0.000932987, No Iterations 10

Time = 34

smoothSolver:  Solving for Ux, Initial residual = 0.00884797, Final residual = 0.000591222, No Iterations 6
smoothSolver:  Solving for Uy, Initial residual = 0.00812643, Final residual = 0.000802457, No Iterations 5
GAMG:  Solving for p, Initial residual = 0.0104386, Final residual = 0.000504598, No Iterations 2
time step continuity errors : sum local = 0.00135592, global = 0.000232413, cumulative = 0.00820894
smoothSolver:  Solving for omega, Initial residual = 0.00356231, Final residual = 0.00023391, No Iterations 6
smoothSolver:  Solving for k, Initial residual = 0.0341467, Final residual = 0.0027165, No Iterations 6
ExecutionTime = 0.49 s  ClockTime = 0 s

scalarTransport execute: age
smoothSolver:  Solving for age, Initial residual = 0.00924749, Final residual = 0.000798303, No Iterations 11

Time = 35

smoothSolver:  Solving for Ux, Initial residual = 0.0088075, Final residual = 0.000587756, No Iterations 6
smoothSolver:  Solving for Uy, Initial residual = 0.00775009, Final residual = 0.000762025, No Iterations 5
GAMG:  Solving for p, Initial residual = 0.0100481, Final residual = 0.000485032, No Iterations 2
time step continuity errors : sum local = 0.00129783, global = 0.000224189, cumulative = 0.00843313
smoothSolver:  Solving for omega, Initial residual = 0.00339298, Final residual = 0.000220638, No Iterations 6
smoothSolver:  Solving for k, Initial residual = 0.032823, Final residual = 0.00261355, No Iterations 6
ExecutionTime = 0.51 s  ClockTime = 0 s

scalarTransport execute: age
smoothSolver:  Solving for age, Initial residual = 0.00909618, Final residual = 0.000796924, No Iterations 11

Time = 36

smoothSolver:  Solving for Ux, Initial residual = 0.00878012, Final residual = 0.000585993, No Iterations 6
smoothSolver:  Solving for Uy, Initial residual = 0.00735127, Final residual = 0.000721308, No Iterations 5
GAMG:  Solving for p, Initial residual = 0.00964143, Final residual = 0.000464838, No Iterations 2
time step continuity errors : sum local = 0.00123933, global = 0.000217172, cumulative = 0.0086503
smoothSolver:  Solving for omega, Initial residual = 0.00322051, Final residual = 0.000208596, No Iterations 6
smoothSolver:  Solving for k, Initial residual = 0.0315593, Final residual = 0.00251541, No Iterations 6
ExecutionTime = 0.52 s  ClockTime = 0 s

scalarTransport execute: age
smoothSolver:  Solving for age, Initial residual = 0.00890763, Final residual = 0.000792304, No Iterations 11

Time = 37

smoothSolver:  Solving for Ux, Initial residual = 0.00876159, Final residual = 0.000585469, No Iterations 6
smoothSolver:  Solving for Uy, Initial residual = 0.00697114, Final residual = 0.000681715, No Iterations 5
GAMG:  Solving for p, Initial residual = 0.00932539, Final residual = 0.000453547, No Iterations 2
time step continuity errors : sum local = 0.00120466, global = 0.000211005, cumulative = 0.00886131
smoothSolver:  Solving for omega, Initial residual = 0.0030637, Final residual = 0.000305114, No Iterations 5
smoothSolver:  Solving for k, Initial residual = 0.0303802, Final residual = 0.00242364, No Iterations 6
ExecutionTime = 0.53 s  ClockTime = 0 s

scalarTransport execute: age
smoothSolver:  Solving for age, Initial residual = 0.00873318, Final residual = 0.000787351, No Iterations 11

Time = 38

smoothSolver:  Solving for Ux, Initial residual = 0.00875012, Final residual = 0.000585762, No Iterations 6
smoothSolver:  Solving for Uy, Initial residual = 0.00661795, Final residual = 0.000644501, No Iterations 5
GAMG:  Solving for p, Initial residual = 0.0091395, Final residual = 0.000453982, No Iterations 2
time step continuity errors : sum local = 0.00120059, global = 0.00020683, cumulative = 0.00906814
smoothSolver:  Solving for omega, Initial residual = 0.00293165, Final residual = 0.000290307, No Iterations 5
smoothSolver:  Solving for k, Initial residual = 0.0292712, Final residual = 0.00233691, No Iterations 6
ExecutionTime = 0.54 s  ClockTime = 0 s

scalarTransport execute: age
smoothSolver:  Solving for age, Initial residual = 0.0085518, Final residual = 0.000780638, No Iterations 11

Time = 39

smoothSolver:  Solving for Ux, Initial residual = 0.00874923, Final residual = 0.000586083, No Iterations 6
smoothSolver:  Solving for Uy, Initial residual = 0.00628689, Final residual = 0.000609256, No Iterations 5
GAMG:  Solving for p, Initial residual = 0.00904458, Final residual = 0.000468241, No Iterations 2
time step continuity errors : sum local = 0.00123261, global = 0.000204999, cumulative = 0.00927313
smoothSolver:  Solving for omega, Initial residual = 0.0028055, Final residual = 0.000276328, No Iterations 5
smoothSolver:  Solving for k, Initial residual = 0.0282093, Final residual = 0.00225372, No Iterations 6
ExecutionTime = 0.56 s  ClockTime = 0 s

scalarTransport execute: age
smoothSolver:  Solving for age, Initial residual = 0.00837347, Final residual = 0.000772755, No Iterations 11

Time = 40

smoothSolver:  Solving for Ux, Initial residual = 0.00878022, Final residual = 0.000586375, No Iterations 6
smoothSolver:  Solving for Uy, Initial residual = 0.00597798, Final residual = 0.000576788, No Iterations 5
GAMG:  Solving for p, Initial residual = 0.00897679, Final residual = 0.000501084, No Iterations 2
time step continuity errors : sum local = 0.00131344, global = 0.000210876, cumulative = 0.00948401
smoothSolver:  Solving for omega, Initial residual = 0.00268312, Final residual = 0.000262968, No Iterations 5
smoothSolver:  Solving for k, Initial residual = 0.0271959, Final residual = 0.00217412, No Iterations 6
ExecutionTime = 0.57 s  ClockTime = 0 s

scalarTransport execute: age
smoothSolver:  Solving for age, Initial residual = 0.0081833, Final residual = 0.000768018, No Iterations 11

Time = 41

smoothSolver:  Solving for Ux, Initial residual = 0.00882578, Final residual = 0.00058679, No Iterations 6
smoothSolver:  Solving for Uy, Initial residual = 0.00569077, Final residual = 0.000546866, No Iterations 5
GAMG:  Solving for p, Initial residual = 0.00895569, Final residual = 0.000533198, No Iterations 2
time step continuity errors : sum local = 0.0013923, global = 0.00022065, cumulative = 0.00970466
smoothSolver:  Solving for omega, Initial residual = 0.00257169, Final residual = 0.000250294, No Iterations 5
smoothSolver:  Solving for k, Initial residual = 0.0262314, Final residual = 0.00209793, No Iterations 6
ExecutionTime = 0.58 s  ClockTime = 0 s

scalarTransport execute: age
smoothSolver:  Solving for age, Initial residual = 0.00802062, Final residual = 0.000763736, No Iterations 11

Time = 42

smoothSolver:  Solving for Ux, Initial residual = 0.00889105, Final residual = 0.000587934, No Iterations 6
smoothSolver:  Solving for Uy, Initial residual = 0.0054348, Final residual = 0.00052029, No Iterations 5
GAMG:  Solving for p, Initial residual = 0.00901054, Final residual = 0.000567857, No Iterations 2
time step continuity errors : sum local = 0.00147757, global = 0.000231794, cumulative = 0.00993645
smoothSolver:  Solving for omega, Initial residual = 0.00246861, Final residual = 0.00023809, No Iterations 5
smoothSolver:  Solving for k, Initial residual = 0.0253177, Final residual = 0.00202511, No Iterations 6
ExecutionTime = 0.6 s  ClockTime = 0 s

scalarTransport execute: age
smoothSolver:  Solving for age, Initial residual = 0.00790022, Final residual = 0.000757388, No Iterations 11

Time = 43

smoothSolver:  Solving for Ux, Initial residual = 0.00896828, Final residual = 0.000589341, No Iterations 6
smoothSolver:  Solving for Uy, Initial residual = 0.00521697, Final residual = 0.000496934, No Iterations 5
GAMG:  Solving for p, Initial residual = 0.0091688, Final residual = 0.000603582, No Iterations 2
time step continuity errors : sum local = 0.00156542, global = 0.000243053, cumulative = 0.0101795
smoothSolver:  Solving for omega, Initial residual = 0.00236221, Final residual = 0.000226715, No Iterations 5
smoothSolver:  Solving for k, Initial residual = 0.0244427, Final residual = 0.00195532, No Iterations 6
ExecutionTime = 0.61 s  ClockTime = 0 s

scalarTransport execute: age
smoothSolver:  Solving for age, Initial residual = 0.00777436, Final residual = 0.00075186, No Iterations 11

Time = 44

smoothSolver:  Solving for Ux, Initial residual = 0.00904431, Final residual = 0.000591135, No Iterations 6
smoothSolver:  Solving for Uy, Initial residual = 0.00502969, Final residual = 0.000477164, No Iterations 5
GAMG:  Solving for p, Initial residual = 0.00930204, Final residual = 0.000634695, No Iterations 2
time step continuity errors : sum local = 0.00164215, global = 0.000253298, cumulative = 0.0104328
smoothSolver:  Solving for omega, Initial residual = 0.00225999, Final residual = 0.00021561, No Iterations 5
smoothSolver:  Solving for k, Initial residual = 0.0236072, Final residual = 0.00188851, No Iterations 6
ExecutionTime = 0.62 s  ClockTime = 0 s

scalarTransport execute: age
smoothSolver:  Solving for age, Initial residual = 0.00767645, Final residual = 0.000753911, No Iterations 11

Time = 45

smoothSolver:  Solving for Ux, Initial residual = 0.00911578, Final residual = 0.000593457, No Iterations 6
smoothSolver:  Solving for Uy, Initial residual = 0.00487903, Final residual = 0.00046112, No Iterations 5
GAMG:  Solving for p, Initial residual = 0.00940389, Final residual = 0.000660103, No Iterations 2
time step continuity errors : sum local = 0.00170559, global = 0.000261279, cumulative = 0.0106941
smoothSolver:  Solving for omega, Initial residual = 0.00217329, Final residual = 0.000205054, No Iterations 5
smoothSolver:  Solving for k, Initial residual = 0.0228118, Final residual = 0.00182454, No Iterations 6
ExecutionTime = 0.63 s  ClockTime = 0 s

scalarTransport execute: age
smoothSolver:  Solving for age, Initial residual = 0.00759056, Final residual = 0.000657369, No Iterations 12

Time = 46

smoothSolver:  Solving for Ux, Initial residual = 0.00919433, Final residual = 0.000596558, No Iterations 6
smoothSolver:  Solving for Uy, Initial residual = 0.00476358, Final residual = 0.000448948, No Iterations 5
GAMG:  Solving for p, Initial residual = 0.00949569, Final residual = 0.000684652, No Iterations 2
time step continuity errors : sum local = 0.00176742, global = 0.000267137, cumulative = 0.0109612
smoothSolver:  Solving for omega, Initial residual = 0.0020915, Final residual = 0.00019546, No Iterations 5
smoothSolver:  Solving for k, Initial residual = 0.0220524, Final residual = 0.00176316, No Iterations 6
ExecutionTime = 0.65 s  ClockTime = 0 s

scalarTransport execute: age
smoothSolver:  Solving for age, Initial residual = 0.00756178, Final residual = 0.000669981, No Iterations 12

Time = 47

smoothSolver:  Solving for Ux, Initial residual = 0.00928792, Final residual = 0.000926753, No Iterations 5
smoothSolver:  Solving for Uy, Initial residual = 0.00468138, Final residual = 0.000440509, No Iterations 5
GAMG:  Solving for p, Initial residual = 0.00952384, Final residual = 0.000696975, No Iterations 2
time step continuity errors : sum local = 0.0017989, global = 0.000269023, cumulative = 0.0112302
smoothSolver:  Solving for omega, Initial residual = 0.002016, Final residual = 0.000186549, No Iterations 5
smoothSolver:  Solving for k, Initial residual = 0.0213307, Final residual = 0.0017047, No Iterations 6
ExecutionTime = 0.66 s  ClockTime = 0 s

scalarTransport execute: age
smoothSolver:  Solving for age, Initial residual = 0.00750509, Final residual = 0.000680235, No Iterations 12

Time = 48

smoothSolver:  Solving for Ux, Initial residual = 0.00942669, Final residual = 0.000939039, No Iterations 5
smoothSolver:  Solving for Uy, Initial residual = 0.00459758, Final residual = 0.000431633, No Iterations 5
GAMG:  Solving for p, Initial residual = 0.00959888, Final residual = 0.000715308, No Iterations 2
time step continuity errors : sum local = 0.00184669, global = 0.000268373, cumulative = 0.0114986
smoothSolver:  Solving for omega, Initial residual = 0.00194525, Final residual = 0.000178166, No Iterations 5
smoothSolver:  Solving for k, Initial residual = 0.0206407, Final residual = 0.0016487, No Iterations 6
ExecutionTime = 0.67 s  ClockTime = 0 s

scalarTransport execute: age
smoothSolver:  Solving for age, Initial residual = 0.00745045, Final residual = 0.000686517, No Iterations 12

Time = 49

smoothSolver:  Solving for Ux, Initial residual = 0.00956036, Final residual = 0.000952214, No Iterations 5
smoothSolver:  Solving for Uy, Initial residual = 0.00456689, Final residual = 0.000428613, No Iterations 5
GAMG:  Solving for p, Initial residual = 0.00966489, Final residual = 0.000738861, No Iterations 2
time step continuity errors : sum local = 0.00190909, global = 0.000266806, cumulative = 0.0117654
smoothSolver:  Solving for omega, Initial residual = 0.00187825, Final residual = 0.000170286, No Iterations 5
smoothSolver:  Solving for k, Initial residual = 0.0199801, Final residual = 0.00159505, No Iterations 6
ExecutionTime = 0.68 s  ClockTime = 0 s

scalarTransport execute: age
smoothSolver:  Solving for age, Initial residual = 0.00745068, Final residual = 0.000694537, No Iterations 12

Time = 50

smoothSolver:  Solving for Ux, Initial residual = 0.0096788, Final residual = 0.000965569, No Iterations 5
smoothSolver:  Solving for Uy, Initial residual = 0.0045804, Final residual = 0.000431958, No Iterations 5
GAMG:  Solving for p, Initial residual = 0.00971339, Final residual = 0.000762156, No Iterations 2
time step continuity errors : sum local = 0.00197135, global = 0.000265379, cumulative = 0.0120308
smoothSolver:  Solving for omega, Initial residual = 0.00182336, Final residual = 0.000162933, No Iterations 5
smoothSolver:  Solving for k, Initial residual = 0.0193441, Final residual = 0.00154353, No Iterations 6
ExecutionTime = 0.7 s  ClockTime = 0 s

scalarTransport execute: age
smoothSolver:  Solving for age, Initial residual = 0.00749782, Final residual = 0.000712276, No Iterations 12

Time = 51

smoothSolver:  Solving for Ux, Initial residual = 0.0097949, Final residual = 0.000979325, No Iterations 5
smoothSolver:  Solving for Uy, Initial residual = 0.00462886, Final residual = 0.000440519, No Iterations 5
GAMG:  Solving for p, Initial residual = 0.00980085, Final residual = 0.000781027, No Iterations 2
time step continuity errors : sum local = 0.00202218, global = 0.000264251, cumulative = 0.0122951
smoothSolver:  Solving for omega, Initial residual = 0.00177018, Final residual = 0.00015602, No Iterations 5
smoothSolver:  Solving for k, Initial residual = 0.0187337, Final residual = 0.00149406, No Iterations 6
ExecutionTime = 0.71 s  ClockTime = 0 s

scalarTransport execute: age
smoothSolver:  Solving for age, Initial residual = 0.00767067, Final residual = 0.000729478, No Iterations 12

Time = 52

smoothSolver:  Solving for Ux, Initial residual = 0.00990449, Final residual = 0.000645177, No Iterations 6
smoothSolver:  Solving for Uy, Initial residual = 0.00470511, Final residual = 0.000453259, No Iterations 5
GAMG:  Solving for p, Initial residual = 0.0100009, Final residual = 0.000806062, No Iterations 2
time step continuity errors : sum local = 0.00208931, global = 0.000264477, cumulative = 0.0125595
smoothSolver:  Solving for omega, Initial residual = 0.00172407, Final residual = 0.000149532, No Iterations 5
smoothSolver:  Solving for k, Initial residual = 0.0181443, Final residual = 0.00144629, No Iterations 6
ExecutionTime = 0.72 s  ClockTime = 0 s

scalarTransport execute: age
smoothSolver:  Solving for age, Initial residual = 0.00800192, Final residual = 0.000759402, No Iterations 12

Time = 53

smoothSolver:  Solving for Ux, Initial residual = 0.00998334, Final residual = 0.000652459, No Iterations 6
smoothSolver:  Solving for Uy, Initial residual = 0.00485763, Final residual = 0.000474524, No Iterations 5
GAMG:  Solving for p, Initial residual = 0.0102893, Final residual = 0.000815817, No Iterations 2
time step continuity errors : sum local = 0.00211882, global = 0.000265218, cumulative = 0.0128247
smoothSolver:  Solving for omega, Initial residual = 0.00167789, Final residual = 0.000143574, No Iterations 5
smoothSolver:  Solving for k, Initial residual = 0.0175796, Final residual = 0.00140052, No Iterations 6
ExecutionTime = 0.73 s  ClockTime = 0 s

scalarTransport execute: age
smoothSolver:  Solving for age, Initial residual = 0.00838252, Final residual = 0.00080823, No Iterations 12

Time = 54

smoothSolver:  Solving for Ux, Initial residual = 0.0100601, Final residual = 0.000660816, No Iterations 6
smoothSolver:  Solving for Uy, Initial residual = 0.00501101, Final residual = 0.00049643, No Iterations 5
GAMG:  Solving for p, Initial residual = 0.0107952, Final residual = 0.000815317, No Iterations 2
time step continuity errors : sum local = 0.00212734, global = 0.000265671, cumulative = 0.0130904
smoothSolver:  Solving for omega, Initial residual = 0.00163211, Final residual = 0.000138119, No Iterations 5
smoothSolver:  Solving for k, Initial residual = 0.0170397, Final residual = 0.00135659, No Iterations 6
ExecutionTime = 0.75 s  ClockTime = 0 s

scalarTransport execute: age
smoothSolver:  Solving for age, Initial residual = 0.00883185, Final residual = 0.00083208, No Iterations 16

Time = 55

smoothSolver:  Solving for Ux, Initial residual = 0.0101458, Final residual = 0.000670676, No Iterations 6
smoothSolver:  Solving for Uy, Initial residual = 0.00515892, Final residual = 0.000337778, No Iterations 6
GAMG:  Solving for p, Initial residual = 0.0117241, Final residual = 0.000806839, No Iterations 2
time step continuity errors : sum local = 0.00212026, global = 0.000267649, cumulative = 0.0133581
smoothSolver:  Solving for omega, Initial residual = 0.00159564, Final residual = 0.000133091, No Iterations 5
smoothSolver:  Solving for k, Initial residual = 0.0165255, Final residual = 0.00131432, No Iterations 6
ExecutionTime = 0.76 s  ClockTime = 0 s

scalarTransport execute: age
smoothSolver:  Solving for age, Initial residual = 0.0118444, Final residual = 0.00106768, No Iterations 13

Time = 56

smoothSolver:  Solving for Ux, Initial residual = 0.010311, Final residual = 0.000682571, No Iterations 6
smoothSolver:  Solving for Uy, Initial residual = 0.00527272, Final residual = 0.000347646, No Iterations 6
GAMG:  Solving for p, Initial residual = 0.0132083, Final residual = 0.000804688, No Iterations 2
time step continuity errors : sum local = 0.00219072, global = 0.000272909, cumulative = 0.013631
smoothSolver:  Solving for omega, Initial residual = 0.00156707, Final residual = 0.000128095, No Iterations 5
smoothSolver:  Solving for k, Initial residual = 0.0160304, Final residual = 0.00127357, No Iterations 6
ExecutionTime = 0.77 s  ClockTime = 0 s

scalarTransport execute: age
smoothSolver:  Solving for age, Initial residual = 0.0121259, Final residual = 0.00118904, No Iterations 12

Time = 57

smoothSolver:  Solving for Ux, Initial residual = 0.0104575, Final residual = 0.000693433, No Iterations 6
smoothSolver:  Solving for Uy, Initial residual = 0.00542062, Final residual = 0.000358528, No Iterations 6
GAMG:  Solving for p, Initial residual = 0.0131652, Final residual = 0.000862927, No Iterations 2
time step continuity errors : sum local = 0.00228446, global = 0.000282383, cumulative = 0.0139134
smoothSolver:  Solving for omega, Initial residual = 0.00151265, Final residual = 0.000123053, No Iterations 5
smoothSolver:  Solving for k, Initial residual = 0.0155539, Final residual = 0.00123447, No Iterations 6
ExecutionTime = 0.78 s  ClockTime = 0 s

scalarTransport execute: age
smoothSolver:  Solving for age, Initial residual = 0.0124808, Final residual = 0.0011254, No Iterations 12

Time = 58

smoothSolver:  Solving for Ux, Initial residual = 0.0106055, Final residual = 0.000702807, No Iterations 6
smoothSolver:  Solving for Uy, Initial residual = 0.00559678, Final residual = 0.000371469, No Iterations 6
GAMG:  Solving for p, Initial residual = 0.0131671, Final residual = 0.000897877, No Iterations 2
time step continuity errors : sum local = 0.00233444, global = 0.000291402, cumulative = 0.0142048
smoothSolver:  Solving for omega, Initial residual = 0.00148011, Final residual = 0.000117579, No Iterations 5
smoothSolver:  Solving for k, Initial residual = 0.0150919, Final residual = 0.001197, No Iterations 6
ExecutionTime = 0.8 s  ClockTime = 0 s

scalarTransport execute: age
smoothSolver:  Solving for age, Initial residual = 0.0122675, Final residual = 0.00113101, No Iterations 12

Time = 59

smoothSolver:  Solving for Ux, Initial residual = 0.0107363, Final residual = 0.000711663, No Iterations 6
smoothSolver:  Solving for Uy, Initial residual = 0.00581491, Final residual = 0.000386385, No Iterations 6
GAMG:  Solving for p, Initial residual = 0.0128379, Final residual = 0.000917716, No Iterations 2
time step continuity errors : sum local = 0.00236234, global = 0.000293448, cumulative = 0.0144982
smoothSolver:  Solving for omega, Initial residual = 0.00142575, Final residual = 0.000113188, No Iterations 5
smoothSolver:  Solving for k, Initial residual = 0.0146488, Final residual = 0.00116094, No Iterations 6
ExecutionTime = 0.81 s  ClockTime = 0 s

scalarTransport execute: age
smoothSolver:  Solving for age, Initial residual = 0.0125134, Final residual = 0.00115068, No Iterations 12

Time = 60

smoothSolver:  Solving for Ux, Initial residual = 0.0108717, Final residual = 0.000721532, No Iterations 6
smoothSolver:  Solving for Uy, Initial residual = 0.00602351, Final residual = 0.000400996, No Iterations 6
GAMG:  Solving for p, Initial residual = 0.0127827, Final residual = 0.000953981, No Iterations 2
time step continuity errors : sum local = 0.00243888, global = 0.000292699, cumulative = 0.0147909
smoothSolver:  Solving for omega, Initial residual = 0.0013841, Final residual = 0.000109161, No Iterations 5
smoothSolver:  Solving for k, Initial residual = 0.0142273, Final residual = 0.00112621, No Iterations 6
ExecutionTime = 0.82 s  ClockTime = 0 s

scalarTransport execute: age
smoothSolver:  Solving for age, Initial residual = 0.0130759, Final residual = 0.00117604, No Iterations 12

Time = 61

smoothSolver:  Solving for Ux, Initial residual = 0.0109575, Final residual = 0.000729985, No Iterations 6
smoothSolver:  Solving for Uy, Initial residual = 0.00617733, Final residual = 0.000414169, No Iterations 6
GAMG:  Solving for p, Initial residual = 0.0127355, Final residual = 0.000981243, No Iterations 2
time step continuity errors : sum local = 0.00249617, global = 0.000289801, cumulative = 0.0150807
smoothSolver:  Solving for omega, Initial residual = 0.00135086, Final residual = 0.00010514, No Iterations 5
smoothSolver:  Solving for k, Initial residual = 0.0138207, Final residual = 0.0010928, No Iterations 6
ExecutionTime = 0.83 s  ClockTime = 0 s

scalarTransport execute: age
smoothSolver:  Solving for age, Initial residual = 0.0138356, Final residual = 0.00119955, No Iterations 12

Time = 62

smoothSolver:  Solving for Ux, Initial residual = 0.0110117, Final residual = 0.000736075, No Iterations 6
smoothSolver:  Solving for Uy, Initial residual = 0.00631864, Final residual = 0.000426301, No Iterations 6
GAMG:  Solving for p, Initial residual = 0.0125809, Final residual = 0.000991027, No Iterations 2
time step continuity errors : sum local = 0.00251311, global = 0.000285019, cumulative = 0.0153657
smoothSolver:  Solving for omega, Initial residual = 0.0013059, Final residual = 0.000101251, No Iterations 5
smoothSolver:  Solving for k, Initial residual = 0.0134251, Final residual = 0.00106059, No Iterations 6
ExecutionTime = 0.85 s  ClockTime = 0 s

scalarTransport execute: age
smoothSolver:  Solving for age, Initial residual = 0.0144612, Final residual = 0.0012522, No Iterations 12

Time = 63

smoothSolver:  Solving for Ux, Initial residual = 0.0110135, Final residual = 0.000738799, No Iterations 6
smoothSolver:  Solving for Uy, Initial residual = 0.00642723, Final residual = 0.000437324, No Iterations 6
GAMG:  Solving for p, Initial residual = 0.0118661, Final residual = 0.00094661, No Iterations 2
time step continuity errors : sum local = 0.00238217, global = 0.000276674, cumulative = 0.0156424
smoothSolver:  Solving for omega, Initial residual = 0.00125096, Final residual = 9.75492e-05, No Iterations 5
smoothSolver:  Solving for k, Initial residual = 0.0130459, Final residual = 0.00102974, No Iterations 6
ExecutionTime = 0.86 s  ClockTime = 0 s

scalarTransport execute: age
smoothSolver:  Solving for age, Initial residual = 0.0154292, Final residual = 0.00151021, No Iterations 11

Time = 64

smoothSolver:  Solving for Ux, Initial residual = 0.0109554, Final residual = 0.000739427, No Iterations 6
smoothSolver:  Solving for Uy, Initial residual = 0.00649433, Final residual = 0.000447591, No Iterations 6
GAMG:  Solving for p, Initial residual = 0.0112693, Final residual = 0.000905831, No Iterations 2
time step continuity errors : sum local = 0.00226536, global = 0.000265309, cumulative = 0.0159077
smoothSolver:  Solving for omega, Initial residual = 0.00121147, Final residual = 9.40342e-05, No Iterations 5
smoothSolver:  Solving for k, Initial residual = 0.0126818, Final residual = 0.00100004, No Iterations 6
ExecutionTime = 0.86 s  ClockTime = 1 s

scalarTransport execute: age
smoothSolver:  Solving for age, Initial residual = 0.0160434, Final residual = 0.00138304, No Iterations 12

Time = 65

smoothSolver:  Solving for Ux, Initial residual = 0.0108597, Final residual = 0.000738728, No Iterations 6
smoothSolver:  Solving for Uy, Initial residual = 0.00655229, Final residual = 0.000456273, No Iterations 6
GAMG:  Solving for p, Initial residual = 0.0107124, Final residual = 0.000878346, No Iterations 2
time step continuity errors : sum local = 0.00218871, global = 0.00025733, cumulative = 0.016165
smoothSolver:  Solving for omega, Initial residual = 0.00117569, Final residual = 9.07352e-05, No Iterations 5
smoothSolver:  Solving for k, Initial residual = 0.0123285, Final residual = 0.000971464, No Iterations 6
ExecutionTime = 0.89 s  ClockTime = 1 s

scalarTransport execute: age
smoothSolver:  Solving for age, Initial residual = 0.0165267, Final residual = 0.00164075, No Iterations 11

Time = 66

smoothSolver:  Solving for Ux, Initial residual = 0.0107355, Final residual = 0.000735587, No Iterations 6
smoothSolver:  Solving for Uy, Initial residual = 0.00658511, Final residual = 0.000463387, No Iterations 6
GAMG:  Solving for p, Initial residual = 0.0102096, Final residual = 0.00083968, No Iterations 2
time step continuity errors : sum local = 0.00208785, global = 0.000248576, cumulative = 0.0164136
smoothSolver:  Solving for omega, Initial residual = 0.00114253, Final residual = 8.76218e-05, No Iterations 5
smoothSolver:  Solving for k, Initial residual = 0.0119864, Final residual = 0.000943916, No Iterations 6
ExecutionTime = 0.9 s  ClockTime = 1 s

scalarTransport execute: age
smoothSolver:  Solving for age, Initial residual = 0.0173183, Final residual = 0.00167239, No Iterations 11

Time = 67

smoothSolver:  Solving for Ux, Initial residual = 0.0106259, Final residual = 0.00073126, No Iterations 6
smoothSolver:  Solving for Uy, Initial residual = 0.00660724, Final residual = 0.00046909, No Iterations 6
GAMG:  Solving for p, Initial residual = 0.00986212, Final residual = 0.000800662, No Iterations 2
time step continuity errors : sum local = 0.00198712, global = 0.000239015, cumulative = 0.0166526
smoothSolver:  Solving for omega, Initial residual = 0.00110431, Final residual = 8.45838e-05, No Iterations 5
smoothSolver:  Solving for k, Initial residual = 0.0116546, Final residual = 0.000917312, No Iterations 6
ExecutionTime = 0.91 s  ClockTime = 1 s

scalarTransport execute: age
smoothSolver:  Solving for age, Initial residual = 0.0179624, Final residual = 0.00169768, No Iterations 11

Time = 68

smoothSolver:  Solving for Ux, Initial residual = 0.0105279, Final residual = 0.00072651, No Iterations 6
smoothSolver:  Solving for Uy, Initial residual = 0.0066094, Final residual = 0.000473556, No Iterations 6
GAMG:  Solving for p, Initial residual = 0.00969049, Final residual = 0.000756643, No Iterations 2
time step continuity errors : sum local = 0.00187437, global = 0.00022766, cumulative = 0.0168803
smoothSolver:  Solving for omega, Initial residual = 0.00107002, Final residual = 8.16967e-05, No Iterations 5
smoothSolver:  Solving for k, Initial residual = 0.0113327, Final residual = 0.000891656, No Iterations 6
ExecutionTime = 0.92 s  ClockTime = 1 s

scalarTransport execute: age
smoothSolver:  Solving for age, Initial residual = 0.018399, Final residual = 0.0016896, No Iterations 11

Time = 69

smoothSolver:  Solving for Ux, Initial residual = 0.0104602, Final residual = 0.000721758, No Iterations 6
smoothSolver:  Solving for Uy, Initial residual = 0.00660313, Final residual = 0.000476954, No Iterations 6
GAMG:  Solving for p, Initial residual = 0.0094982, Final residual = 0.00069926, No Iterations 2
time step continuity errors : sum local = 0.00172875, global = 0.000209428, cumulative = 0.0170897
smoothSolver:  Solving for omega, Initial residual = 0.00103589, Final residual = 7.89242e-05, No Iterations 5
smoothSolver:  Solving for k, Initial residual = 0.011021, Final residual = 0.000866896, No Iterations 6
ExecutionTime = 0.94 s  ClockTime = 1 s

scalarTransport execute: age
smoothSolver:  Solving for age, Initial residual = 0.0188042, Final residual = 0.00167136, No Iterations 11

Time = 70

smoothSolver:  Solving for Ux, Initial residual = 0.0104233, Final residual = 0.000718657, No Iterations 6
smoothSolver:  Solving for Uy, Initial residual = 0.00659491, Final residual = 0.000479753, No Iterations 6
GAMG:  Solving for p, Initial residual = 0.00954474, Final residual = 0.000656289, No Iterations 2
time step continuity errors : sum local = 0.00161843, global = 0.000189707, cumulative = 0.0172794
smoothSolver:  Solving for omega, Initial residual = 0.00100498, Final residual = 7.63283e-05, No Iterations 5
smoothSolver:  Solving for k, Initial residual = 0.0107185, Final residual = 0.000842945, No Iterations 6
ExecutionTime = 0.95 s  ClockTime = 1 s

scalarTransport execute: age
smoothSolver:  Solving for age, Initial residual = 0.0189475, Final residual = 0.00177945, No Iterations 11

Time = 71

smoothSolver:  Solving for Ux, Initial residual = 0.0103954, Final residual = 0.000716917, No Iterations 6
smoothSolver:  Solving for Uy, Initial residual = 0.00658637, Final residual = 0.000482107, No Iterations 6
GAMG:  Solving for p, Initial residual = 0.00962661, Final residual = 0.000622758, No Iterations 2
time step continuity errors : sum local = 0.00153194, global = 0.000169615, cumulative = 0.017449
smoothSolver:  Solving for omega, Initial residual = 0.00097638, Final residual = 7.38818e-05, No Iterations 5
smoothSolver:  Solving for k, Initial residual = 0.0104252, Final residual = 0.000819815, No Iterations 6
ExecutionTime = 0.96 s  ClockTime = 1 s

scalarTransport execute: age
smoothSolver:  Solving for age, Initial residual = 0.0185397, Final residual = 0.00178415, No Iterations 11

Time = 72

smoothSolver:  Solving for Ux, Initial residual = 0.0103599, Final residual = 0.000715239, No Iterations 6
smoothSolver:  Solving for Uy, Initial residual = 0.00658015, Final residual = 0.000484014, No Iterations 6
GAMG:  Solving for p, Initial residual = 0.00967743, Final residual = 0.000596302, No Iterations 2
time step continuity errors : sum local = 0.00146244, global = 0.00014947, cumulative = 0.0175985
smoothSolver:  Solving for omega, Initial residual = 0.000947564, Final residual = 7.15494e-05, No Iterations 5
smoothSolver:  Solving for k, Initial residual = 0.0101426, Final residual = 0.000797483, No Iterations 6
ExecutionTime = 0.98 s  ClockTime = 1 s

scalarTransport execute: age
smoothSolver:  Solving for age, Initial residual = 0.0175295, Final residual = 0.00170163, No Iterations 11

Time = 73

smoothSolver:  Solving for Ux, Initial residual = 0.0103194, Final residual = 0.000713984, No Iterations 6
smoothSolver:  Solving for Uy, Initial residual = 0.00657739, Final residual = 0.000485487, No Iterations 6
GAMG:  Solving for p, Initial residual = 0.00971882, Final residual = 0.000573286, No Iterations 2
time step continuity errors : sum local = 0.00140094, global = 0.000130401, cumulative = 0.0177289
smoothSolver:  Solving for omega, Initial residual = 0.00091875, Final residual = 6.93492e-05, No Iterations 5
smoothSolver:  Solving for k, Initial residual = 0.00987124, Final residual = 0.000775925, No Iterations 6
ExecutionTime = 0.99 s  ClockTime = 1 s

scalarTransport execute: age
smoothSolver:  Solving for age, Initial residual = 0.0164738, Final residual = 0.00160638, No Iterations 11

Time = 74

smoothSolver:  Solving for Ux, Initial residual = 0.0102709, Final residual = 0.000711216, No Iterations 6
smoothSolver:  Solving for Uy, Initial residual = 0.00657289, Final residual = 0.000486443, No Iterations 6
GAMG:  Solving for p, Initial residual = 0.00972295, Final residual = 0.000562045, No Iterations 2
time step continuity errors : sum local = 0.00136765, global = 0.000116734, cumulative = 0.0178456
smoothSolver:  Solving for omega, Initial residual = 0.000891296, Final residual = 6.72218e-05, No Iterations 5
smoothSolver:  Solving for k, Initial residual = 0.00961195, Final residual = 0.000755059, No Iterations 6
ExecutionTime = 1 s  ClockTime = 1 s

scalarTransport execute: age
smoothSolver:  Solving for age, Initial residual = 0.0150888, Final residual = 0.00134186, No Iterations 12

Time = 75

smoothSolver:  Solving for Ux, Initial residual = 0.0101892, Final residual = 0.000706078, No Iterations 6
smoothSolver:  Solving for Uy, Initial residual = 0.00656664, Final residual = 0.000486732, No Iterations 6
GAMG:  Solving for p, Initial residual = 0.00963397, Final residual = 0.000549764, No Iterations 2
time step continuity errors : sum local = 0.00133012, global = 0.00010478, cumulative = 0.0179504
smoothSolver:  Solving for omega, Initial residual = 0.000867849, Final residual = 6.52004e-05, No Iterations 5
smoothSolver:  Solving for k, Initial residual = 0.0093605, Final residual = 0.000734858, No Iterations 6
ExecutionTime = 1.01 s  ClockTime = 1 s

scalarTransport execute: age
smoothSolver:  Solving for age, Initial residual = 0.0140784, Final residual = 0.00128265, No Iterations 12

Time = 76

smoothSolver:  Solving for Ux, Initial residual = 0.0100917, Final residual = 0.000699854, No Iterations 6
smoothSolver:  Solving for Uy, Initial residual = 0.00655583, Final residual = 0.000486518, No Iterations 6
GAMG:  Solving for p, Initial residual = 0.00947431, Final residual = 0.000540998, No Iterations 2
time step continuity errors : sum local = 0.0013018, global = 9.63119e-05, cumulative = 0.0180467
smoothSolver:  Solving for omega, Initial residual = 0.000842424, Final residual = 6.3235e-05, No Iterations 5
smoothSolver:  Solving for k, Initial residual = 0.00911743, Final residual = 0.000715279, No Iterations 6
ExecutionTime = 1.03 s  ClockTime = 1 s

scalarTransport execute: age
smoothSolver:  Solving for age, Initial residual = 0.0131628, Final residual = 0.00124312, No Iterations 12

Time = 77

smoothSolver:  Solving for Ux, Initial residual = 0.00998553, Final residual = 0.000692561, No Iterations 6
smoothSolver:  Solving for Uy, Initial residual = 0.00655294, Final residual = 0.000485585, No Iterations 6
GAMG:  Solving for p, Initial residual = 0.0092572, Final residual = 0.000535364, No Iterations 2
time step continuity errors : sum local = 0.00127894, global = 8.93075e-05, cumulative = 0.018136
smoothSolver:  Solving for omega, Initial residual = 0.000819372, Final residual = 6.12585e-05, No Iterations 5
smoothSolver:  Solving for k, Initial residual = 0.00888046, Final residual = 0.000696288, No Iterations 6
ExecutionTime = 1.04 s  ClockTime = 1 s

scalarTransport execute: age
smoothSolver:  Solving for age, Initial residual = 0.0126041, Final residual = 0.00122952, No Iterations 12

Time = 78

smoothSolver:  Solving for Ux, Initial residual = 0.00987018, Final residual = 0.000684153, No Iterations 6
smoothSolver:  Solving for Uy, Initial residual = 0.00653451, Final residual = 0.000483537, No Iterations 6
GAMG:  Solving for p, Initial residual = 0.00900157, Final residual = 0.00053151, No Iterations 2
time step continuity errors : sum local = 0.00126029, global = 8.54466e-05, cumulative = 0.0182215
smoothSolver:  Solving for omega, Initial residual = 0.000797406, Final residual = 5.93305e-05, No Iterations 5
smoothSolver:  Solving for k, Initial residual = 0.00864961, Final residual = 0.000677852, No Iterations 6
ExecutionTime = 1.05 s  ClockTime = 1 s

scalarTransport execute: age
smoothSolver:  Solving for age, Initial residual = 0.0121823, Final residual = 0.00107925, No Iterations 13

Time = 79

smoothSolver:  Solving for Ux, Initial residual = 0.00973479, Final residual = 0.000674235, No Iterations 6
smoothSolver:  Solving for Uy, Initial residual = 0.0065011, Final residual = 0.000480008, No Iterations 6
GAMG:  Solving for p, Initial residual = 0.00872209, Final residual = 0.000526621, No Iterations 2
time step continuity errors : sum local = 0.00123981, global = 8.42752e-05, cumulative = 0.0183058
smoothSolver:  Solving for omega, Initial residual = 0.000779277, Final residual = 5.73964e-05, No Iterations 5
smoothSolver:  Solving for k, Initial residual = 0.00842458, Final residual = 0.000659934, No Iterations 6
ExecutionTime = 1.07 s  ClockTime = 1 s

scalarTransport execute: age
smoothSolver:  Solving for age, Initial residual = 0.0118598, Final residual = 0.00110867, No Iterations 13

Time = 80

smoothSolver:  Solving for Ux, Initial residual = 0.00959516, Final residual = 0.000663963, No Iterations 6
smoothSolver:  Solving for Uy, Initial residual = 0.00644579, Final residual = 0.000475082, No Iterations 6
GAMG:  Solving for p, Initial residual = 0.0085304, Final residual = 0.000517485, No Iterations 2
time step continuity errors : sum local = 0.00121151, global = 8.39207e-05, cumulative = 0.0183897
smoothSolver:  Solving for omega, Initial residual = 0.000760887, Final residual = 5.55943e-05, No Iterations 5
smoothSolver:  Solving for k, Initial residual = 0.00820493, Final residual = 0.000642525, No Iterations 6
ExecutionTime = 1.08 s  ClockTime = 1 s

scalarTransport execute: age
smoothSolver:  Solving for age, Initial residual = 0.0116023, Final residual = 0.00113662, No Iterations 13

Time = 81

smoothSolver:  Solving for Ux, Initial residual = 0.00944543, Final residual = 0.000652799, No Iterations 6
smoothSolver:  Solving for Uy, Initial residual = 0.00637391, Final residual = 0.000468801, No Iterations 6
GAMG:  Solving for p, Initial residual = 0.00843629, Final residual = 0.000515685, No Iterations 2
time step continuity errors : sum local = 0.00120198, global = 8.39587e-05, cumulative = 0.0184736
smoothSolver:  Solving for omega, Initial residual = 0.000743696, Final residual = 5.3917e-05, No Iterations 5
smoothSolver:  Solving for k, Initial residual = 0.0079912, Final residual = 0.000625608, No Iterations 6
ExecutionTime = 1.09 s  ClockTime = 1 s

scalarTransport execute: age
smoothSolver:  Solving for age, Initial residual = 0.0112898, Final residual = 0.00101796, No Iterations 14

Time = 82

smoothSolver:  Solving for Ux, Initial residual = 0.00928757, Final residual = 0.000640619, No Iterations 6
smoothSolver:  Solving for Uy, Initial residual = 0.0062843, Final residual = 0.00046123, No Iterations 6
GAMG:  Solving for p, Initial residual = 0.0083803, Final residual = 0.000520124, No Iterations 2
time step continuity errors : sum local = 0.00120513, global = 8.30393e-05, cumulative = 0.0185567
smoothSolver:  Solving for omega, Initial residual = 0.000728471, Final residual = 5.24115e-05, No Iterations 5
smoothSolver:  Solving for k, Initial residual = 0.0077814, Final residual = 0.000609122, No Iterations 6
ExecutionTime = 1.1 s  ClockTime = 1 s

scalarTransport execute: age
smoothSolver:  Solving for age, Initial residual = 0.0111347, Final residual = 0.00103958, No Iterations 14

Time = 83

smoothSolver:  Solving for Ux, Initial residual = 0.00912216, Final residual = 0.000627592, No Iterations 6
smoothSolver:  Solving for Uy, Initial residual = 0.0061767, Final residual = 0.000452619, No Iterations 6
GAMG:  Solving for p, Initial residual = 0.0083395, Final residual = 0.000524144, No Iterations 2
time step continuity errors : sum local = 0.00120782, global = 7.98752e-05, cumulative = 0.0186366
smoothSolver:  Solving for omega, Initial residual = 0.000713724, Final residual = 5.10359e-05, No Iterations 5
smoothSolver:  Solving for k, Initial residual = 0.00757742, Final residual = 0.00059308, No Iterations 6
ExecutionTime = 1.12 s  ClockTime = 1 s

scalarTransport execute: age
smoothSolver:  Solving for age, Initial residual = 0.0109219, Final residual = 0.00105519, No Iterations 14

Time = 84

smoothSolver:  Solving for Ux, Initial residual = 0.008944, Final residual = 0.000613865, No Iterations 6
smoothSolver:  Solving for Uy, Initial residual = 0.00606225, Final residual = 0.000443147, No Iterations 6
GAMG:  Solving for p, Initial residual = 0.00829902, Final residual = 0.000526761, No Iterations 2
time step continuity errors : sum local = 0.00120791, global = 7.57996e-05, cumulative = 0.0187124
smoothSolver:  Solving for omega, Initial residual = 0.000697221, Final residual = 4.9647e-05, No Iterations 5
smoothSolver:  Solving for k, Initial residual = 0.00737748, Final residual = 0.00057747, No Iterations 6
ExecutionTime = 1.13 s  ClockTime = 1 s

scalarTransport execute: age
smoothSolver:  Solving for age, Initial residual = 0.0107425, Final residual = 0.00106737, No Iterations 14

Time = 85

smoothSolver:  Solving for Ux, Initial residual = 0.00875318, Final residual = 0.000599678, No Iterations 6
smoothSolver:  Solving for Uy, Initial residual = 0.00594229, Final residual = 0.000432998, No Iterations 6
GAMG:  Solving for p, Initial residual = 0.00826631, Final residual = 0.000521062, No Iterations 2
time step continuity errors : sum local = 0.00118949, global = 6.58906e-05, cumulative = 0.0187783
smoothSolver:  Solving for omega, Initial residual = 0.000681451, Final residual = 4.82709e-05, No Iterations 5
smoothSolver:  Solving for k, Initial residual = 0.00718168, Final residual = 0.000562268, No Iterations 6
ExecutionTime = 1.14 s  ClockTime = 1 s

scalarTransport execute: age
smoothSolver:  Solving for age, Initial residual = 0.0106624, Final residual = 0.000936421, No Iterations 15

Time = 86

smoothSolver:  Solving for Ux, Initial residual = 0.00856078, Final residual = 0.000585823, No Iterations 6
smoothSolver:  Solving for Uy, Initial residual = 0.00581088, Final residual = 0.000422052, No Iterations 6
GAMG:  Solving for p, Initial residual = 0.00820544, Final residual = 0.000524664, No Iterations 2
time step continuity errors : sum local = 0.00119224, global = 6.03764e-05, cumulative = 0.0188386
smoothSolver:  Solving for omega, Initial residual = 0.000663099, Final residual = 4.69157e-05, No Iterations 5
smoothSolver:  Solving for k, Initial residual = 0.00699101, Final residual = 0.000547449, No Iterations 6
ExecutionTime = 1.16 s  ClockTime = 1 s

scalarTransport execute: age
smoothSolver:  Solving for age, Initial residual = 0.0106315, Final residual = 0.000933457, No Iterations 15

Time = 87

smoothSolver:  Solving for Ux, Initial residual = 0.00834951, Final residual = 0.000570507, No Iterations 6
smoothSolver:  Solving for Uy, Initial residual = 0.00567231, Final residual = 0.000410198, No Iterations 6
GAMG:  Solving for p, Initial residual = 0.00807115, Final residual = 0.000517642, No Iterations 2
time step continuity errors : sum local = 0.00117245, global = 5.35788e-05, cumulative = 0.0188922
smoothSolver:  Solving for omega, Initial residual = 0.000646733, Final residual = 4.55452e-05, No Iterations 5
smoothSolver:  Solving for k, Initial residual = 0.00680533, Final residual = 0.000533006, No Iterations 6
ExecutionTime = 1.17 s  ClockTime = 1 s

scalarTransport execute: age
smoothSolver:  Solving for age, Initial residual = 0.0105664, Final residual = 0.00105448, No Iterations 14

Time = 88

smoothSolver:  Solving for Ux, Initial residual = 0.00813551, Final residual = 0.00055507, No Iterations 6
smoothSolver:  Solving for Uy, Initial residual = 0.00551563, Final residual = 0.000397447, No Iterations 6
GAMG:  Solving for p, Initial residual = 0.00786425, Final residual = 0.000509315, No Iterations 2
time step continuity errors : sum local = 0.00114795, global = 4.6835e-05, cumulative = 0.018939
smoothSolver:  Solving for omega, Initial residual = 0.000628274, Final residual = 4.41817e-05, No Iterations 5
smoothSolver:  Solving for k, Initial residual = 0.00662448, Final residual = 0.000518856, No Iterations 6
ExecutionTime = 1.18 s  ClockTime = 1 s

scalarTransport execute: age
smoothSolver:  Solving for age, Initial residual = 0.0104282, Final residual = 0.000914239, No Iterations 15

Time = 89

smoothSolver:  Solving for Ux, Initial residual = 0.00791484, Final residual = 0.000539445, No Iterations 6
smoothSolver:  Solving for Uy, Initial residual = 0.00534896, Final residual = 0.000384027, No Iterations 6
GAMG:  Solving for p, Initial residual = 0.00763428, Final residual = 0.000503094, No Iterations 2
time step continuity errors : sum local = 0.00112882, global = 4.03029e-05, cumulative = 0.0189793
smoothSolver:  Solving for omega, Initial residual = 0.000608868, Final residual = 4.27829e-05, No Iterations 5
smoothSolver:  Solving for k, Initial residual = 0.00644738, Final residual = 0.000505034, No Iterations 6
ExecutionTime = 1.19 s  ClockTime = 1 s

scalarTransport execute: age
smoothSolver:  Solving for age, Initial residual = 0.0101718, Final residual = 0.000995149, No Iterations 14

Time = 90

smoothSolver:  Solving for Ux, Initial residual = 0.00768928, Final residual = 0.000523553, No Iterations 6
smoothSolver:  Solving for Uy, Initial residual = 0.00517566, Final residual = 0.000369897, No Iterations 6
GAMG:  Solving for p, Initial residual = 0.00738661, Final residual = 0.00049656, No Iterations 2
time step continuity errors : sum local = 0.00110963, global = 3.38739e-05, cumulative = 0.0190132
smoothSolver:  Solving for omega, Initial residual = 0.000588616, Final residual = 4.13507e-05, No Iterations 5
smoothSolver:  Solving for k, Initial residual = 0.0062743, Final residual = 0.000491522, No Iterations 6
ExecutionTime = 1.21 s  ClockTime = 1 s

scalarTransport execute: age
smoothSolver:  Solving for age, Initial residual = 0.00977376, Final residual = 0.000913813, No Iterations 14

Time = 91

smoothSolver:  Solving for Ux, Initial residual = 0.00746208, Final residual = 0.000507565, No Iterations 6
smoothSolver:  Solving for Uy, Initial residual = 0.00499394, Final residual = 0.000355032, No Iterations 6
GAMG:  Solving for p, Initial residual = 0.00717482, Final residual = 0.000490796, No Iterations 2
time step continuity errors : sum local = 0.00109248, global = 2.7525e-05, cumulative = 0.0190407
smoothSolver:  Solving for omega, Initial residual = 0.000569469, Final residual = 3.99994e-05, No Iterations 5
smoothSolver:  Solving for k, Initial residual = 0.00610473, Final residual = 0.000478262, No Iterations 6
ExecutionTime = 1.22 s  ClockTime = 1 s

scalarTransport execute: age
smoothSolver:  Solving for age, Initial residual = 0.00932452, Final residual = 0.000827336, No Iterations 14

Time = 92

smoothSolver:  Solving for Ux, Initial residual = 0.00723046, Final residual = 0.000491332, No Iterations 6
smoothSolver:  Solving for Uy, Initial residual = 0.00480328, Final residual = 0.000339782, No Iterations 6
GAMG:  Solving for p, Initial residual = 0.00700692, Final residual = 0.000483542, No Iterations 2
time step continuity errors : sum local = 0.00107226, global = 2.05907e-05, cumulative = 0.0190613
smoothSolver:  Solving for omega, Initial residual = 0.000552149, Final residual = 3.87252e-05, No Iterations 5
smoothSolver:  Solving for k, Initial residual = 0.00593828, Final residual = 0.000465207, No Iterations 6
ExecutionTime = 1.23 s  ClockTime = 1 s

scalarTransport execute: age
smoothSolver:  Solving for age, Initial residual = 0.00879674, Final residual = 0.000856952, No Iterations 13

Time = 93

smoothSolver:  Solving for Ux, Initial residual = 0.00699477, Final residual = 0.000474832, No Iterations 6
smoothSolver:  Solving for Uy, Initial residual = 0.00460981, Final residual = 0.000324329, No Iterations 6
GAMG:  Solving for p, Initial residual = 0.00684425, Final residual = 0.000474557, No Iterations 2
time step continuity errors : sum local = 0.00104858, global = 1.4874e-05, cumulative = 0.0190762
smoothSolver:  Solving for omega, Initial residual = 0.000531501, Final residual = 3.74034e-05, No Iterations 5
smoothSolver:  Solving for k, Initial residual = 0.00577507, Final residual = 0.000452353, No Iterations 6
ExecutionTime = 1.25 s  ClockTime = 1 s

scalarTransport execute: age
smoothSolver:  Solving for age, Initial residual = 0.0083337, Final residual = 0.000765564, No Iterations 13

Time = 94

smoothSolver:  Solving for Ux, Initial residual = 0.0067538, Final residual = 0.000458063, No Iterations 6
smoothSolver:  Solving for Uy, Initial residual = 0.00442113, Final residual = 0.000308997, No Iterations 6
GAMG:  Solving for p, Initial residual = 0.00671618, Final residual = 0.00046411, No Iterations 2
time step continuity errors : sum local = 0.00102219, global = 1.00213e-05, cumulative = 0.0190862
smoothSolver:  Solving for omega, Initial residual = 0.000511687, Final residual = 3.61252e-05, No Iterations 5
smoothSolver:  Solving for k, Initial residual = 0.00561602, Final residual = 0.000439635, No Iterations 6
ExecutionTime = 1.26 s  ClockTime = 1 s

scalarTransport execute: age
smoothSolver:  Solving for age, Initial residual = 0.00780985, Final residual = 0.000679584, No Iterations 13

Time = 95

smoothSolver:  Solving for Ux, Initial residual = 0.00651489, Final residual = 0.000441119, No Iterations 6
smoothSolver:  Solving for Uy, Initial residual = 0.00423517, Final residual = 0.0002939, No Iterations 6
GAMG:  Solving for p, Initial residual = 0.00657771, Final residual = 0.000453357, No Iterations 2
time step continuity errors : sum local = 0.00099478, global = 1.05497e-05, cumulative = 0.0190968
smoothSolver:  Solving for omega, Initial residual = 0.000497811, Final residual = 3.50571e-05, No Iterations 5
smoothSolver:  Solving for k, Initial residual = 0.00545727, Final residual = 0.000426904, No Iterations 6
ExecutionTime = 1.27 s  ClockTime = 1 s

scalarTransport execute: age
smoothSolver:  Solving for age, Initial residual = 0.00740253, Final residual = 0.000693007, No Iterations 12

Time = 96

[...]

Time = 637

smoothSolver:  Solving for Ux, Initial residual = 4.38978e-07, Final residual = 3.69421e-08, No Iterations 5
smoothSolver:  Solving for Uy, Initial residual = 2.70874e-07, Final residual = 2.29582e-08, No Iterations 5
GAMG:  Solving for p, Initial residual = 1.22634e-06, Final residual = 6.21318e-08, No Iterations 2
time step continuity errors : sum local = 1.43371e-07, global = -1.43304e-09, cumulative = 0.0202017
smoothSolver:  Solving for omega, Initial residual = 3.75485e-08, Final residual = 9.79587e-09, No Iterations 2
smoothSolver:  Solving for k, Initial residual = 6.30395e-08, Final residual = 8.55127e-09, No Iterations 4
ExecutionTime = 8.15 s  ClockTime = 8 s

scalarTransport execute: age
smoothSolver:  Solving for age, Initial residual = 0.000246934, Final residual = 2.27155e-05, No Iterations 15

Time = 638

smoothSolver:  Solving for Ux, Initial residual = 4.34736e-07, Final residual = 3.65781e-08, No Iterations 5
smoothSolver:  Solving for Uy, Initial residual = 2.68499e-07, Final residual = 2.27684e-08, No Iterations 5
GAMG:  Solving for p, Initial residual = 1.21756e-06, Final residual = 6.18238e-08, No Iterations 2
time step continuity errors : sum local = 1.4266e-07, global = -1.25309e-09, cumulative = 0.0202017
smoothSolver:  Solving for omega, Initial residual = 3.72776e-08, Final residual = 9.74914e-09, No Iterations 2
smoothSolver:  Solving for k, Initial residual = 6.21439e-08, Final residual = 8.41783e-09, No Iterations 4
ExecutionTime = 8.16 s  ClockTime = 8 s

scalarTransport execute: age
smoothSolver:  Solving for age, Initial residual = 0.000246515, Final residual = 2.26765e-05, No Iterations 15

Time = 639

smoothSolver:  Solving for Ux, Initial residual = 4.30621e-07, Final residual = 3.62251e-08, No Iterations 5
smoothSolver:  Solving for Uy, Initial residual = 2.65997e-07, Final residual = 2.25633e-08, No Iterations 5
GAMG:  Solving for p, Initial residual = 1.20799e-06, Final residual = 6.15586e-08, No Iterations 2
time step continuity errors : sum local = 1.42048e-07, global = -1.60218e-09, cumulative = 0.0202017
smoothSolver:  Solving for omega, Initial residual = 3.69257e-08, Final residual = 9.69455e-09, No Iterations 2
smoothSolver:  Solving for k, Initial residual = 6.12871e-08, Final residual = 8.28756e-09, No Iterations 4
ExecutionTime = 8.17 s  ClockTime = 8 s

scalarTransport execute: age
smoothSolver:  Solving for age, Initial residual = 0.000246099, Final residual = 2.26377e-05, No Iterations 15

Time = 640

smoothSolver:  Solving for Ux, Initial residual = 4.26763e-07, Final residual = 3.59098e-08, No Iterations 5
smoothSolver:  Solving for Uy, Initial residual = 2.63285e-07, Final residual = 2.23469e-08, No Iterations 5
GAMG:  Solving for p, Initial residual = 1.19717e-06, Final residual = 6.07046e-08, No Iterations 2
time step continuity errors : sum local = 1.40078e-07, global = -1.53265e-09, cumulative = 0.0202017
smoothSolver:  Solving for omega, Initial residual = 3.6841e-08, Final residual = 9.63883e-09, No Iterations 2
smoothSolver:  Solving for k, Initial residual = 6.04071e-08, Final residual = 8.15908e-09, No Iterations 4
ExecutionTime = 8.19 s  ClockTime = 8 s

scalarTransport execute: age
smoothSolver:  Solving for age, Initial residual = 0.000245684, Final residual = 2.2599e-05, No Iterations 15

Time = 641

smoothSolver:  Solving for Ux, Initial residual = 4.22689e-07, Final residual = 3.55528e-08, No Iterations 5
smoothSolver:  Solving for Uy, Initial residual = 2.60664e-07, Final residual = 2.21273e-08, No Iterations 5
GAMG:  Solving for p, Initial residual = 1.18649e-06, Final residual = 6.00583e-08, No Iterations 2
time step continuity errors : sum local = 1.38586e-07, global = -1.4056e-09, cumulative = 0.0202017
smoothSolver:  Solving for omega, Initial residual = 3.64671e-08, Final residual = 9.5786e-09, No Iterations 2
smoothSolver:  Solving for k, Initial residual = 5.95595e-08, Final residual = 8.03305e-09, No Iterations 4
ExecutionTime = 8.2 s  ClockTime = 8 s

scalarTransport execute: age
smoothSolver:  Solving for age, Initial residual = 0.000245271, Final residual = 2.25604e-05, No Iterations 15

Time = 642

smoothSolver:  Solving for Ux, Initial residual = 4.18606e-07, Final residual = 3.51984e-08, No Iterations 5
smoothSolver:  Solving for Uy, Initial residual = 2.58138e-07, Final residual = 2.19204e-08, No Iterations 5
GAMG:  Solving for p, Initial residual = 1.17634e-06, Final residual = 5.95062e-08, No Iterations 2
time step continuity errors : sum local = 1.37312e-07, global = -1.30838e-09, cumulative = 0.0202017
smoothSolver:  Solving for omega, Initial residual = 3.62087e-08, Final residual = 9.51864e-09, No Iterations 2
smoothSolver:  Solving for k, Initial residual = 5.87391e-08, Final residual = 7.90929e-09, No Iterations 4
ExecutionTime = 8.21 s  ClockTime = 8 s

scalarTransport execute: age
smoothSolver:  Solving for age, Initial residual = 0.00024486, Final residual = 2.2522e-05, No Iterations 15

Time = 643

smoothSolver:  Solving for Ux, Initial residual = 4.14507e-07, Final residual = 3.48465e-08, No Iterations 5
smoothSolver:  Solving for Uy, Initial residual = 2.5566e-07, Final residual = 2.17158e-08, No Iterations 5
GAMG:  Solving for p, Initial residual = 1.1666e-06, Final residual = 5.91231e-08, No Iterations 2
time step continuity errors : sum local = 1.36428e-07, global = -1.6895e-09, cumulative = 0.0202017
smoothSolver:  Solving for omega, Initial residual = 3.58137e-08, Final residual = 9.4512e-09, No Iterations 2
smoothSolver:  Solving for k, Initial residual = 5.7943e-08, Final residual = 7.78811e-09, No Iterations 4
ExecutionTime = 8.22 s  ClockTime = 8 s

scalarTransport execute: age
smoothSolver:  Solving for age, Initial residual = 0.00024445, Final residual = 2.24838e-05, No Iterations 15

Time = 644

smoothSolver:  Solving for Ux, Initial residual = 4.10653e-07, Final residual = 3.45267e-08, No Iterations 5
smoothSolver:  Solving for Uy, Initial residual = 2.53088e-07, Final residual = 2.15056e-08, No Iterations 5
GAMG:  Solving for p, Initial residual = 1.15624e-06, Final residual = 5.82564e-08, No Iterations 2
time step continuity errors : sum local = 1.34428e-07, global = -1.67701e-09, cumulative = 0.0202017
smoothSolver:  Solving for omega, Initial residual = 3.57079e-08, Final residual = 9.38671e-09, No Iterations 2
smoothSolver:  Solving for k, Initial residual = 5.71225e-08, Final residual = 7.66807e-09, No Iterations 4
ExecutionTime = 8.24 s  ClockTime = 8 s

scalarTransport execute: age
smoothSolver:  Solving for age, Initial residual = 0.000244041, Final residual = 2.24457e-05, No Iterations 15

Time = 645

smoothSolver:  Solving for Ux, Initial residual = 4.06533e-07, Final residual = 3.41648e-08, No Iterations 5
smoothSolver:  Solving for Uy, Initial residual = 2.50531e-07, Final residual = 2.12906e-08, No Iterations 5
GAMG:  Solving for p, Initial residual = 1.1459e-06, Final residual = 5.76454e-08, No Iterations 2
time step continuity errors : sum local = 1.33018e-07, global = -1.58905e-09, cumulative = 0.0202016
smoothSolver:  Solving for omega, Initial residual = 3.53302e-08, Final residual = 9.31978e-09, No Iterations 2
smoothSolver:  Solving for k, Initial residual = 5.63258e-08, Final residual = 7.54988e-09, No Iterations 4
ExecutionTime = 8.25 s  ClockTime = 8 s

scalarTransport execute: age
smoothSolver:  Solving for age, Initial residual = 0.000243634, Final residual = 2.24079e-05, No Iterations 15

Time = 646

smoothSolver:  Solving for Ux, Initial residual = 4.02418e-07, Final residual = 3.38061e-08, No Iterations 5
smoothSolver:  Solving for Uy, Initial residual = 2.48092e-07, Final residual = 2.10869e-08, No Iterations 5
GAMG:  Solving for p, Initial residual = 1.13604e-06, Final residual = 5.71363e-08, No Iterations 2
time step continuity errors : sum local = 1.31843e-07, global = -1.52005e-09, cumulative = 0.0202016
smoothSolver:  Solving for omega, Initial residual = 3.50588e-08, Final residual = 9.25388e-09, No Iterations 2
smoothSolver:  Solving for k, Initial residual = 5.55487e-08, Final residual = 7.43343e-09, No Iterations 4
ExecutionTime = 8.26 s  ClockTime = 8 s

scalarTransport execute: age
smoothSolver:  Solving for age, Initial residual = 0.000243228, Final residual = 2.23704e-05, No Iterations 15

Time = 647

smoothSolver:  Solving for Ux, Initial residual = 3.98312e-07, Final residual = 3.34516e-08, No Iterations 5
smoothSolver:  Solving for Uy, Initial residual = 2.45695e-07, Final residual = 2.08861e-08, No Iterations 5
GAMG:  Solving for p, Initial residual = 1.12631e-06, Final residual = 5.66672e-08, No Iterations 2
time step continuity errors : sum local = 1.30761e-07, global = -1.45086e-09, cumulative = 0.0202016
smoothSolver:  Solving for omega, Initial residual = 3.47553e-08, Final residual = 9.18437e-09, No Iterations 2
smoothSolver:  Solving for k, Initial residual = 5.4772e-08, Final residual = 7.31863e-09, No Iterations 4
ExecutionTime = 8.27 s  ClockTime = 8 s

scalarTransport execute: age
smoothSolver:  Solving for age, Initial residual = 0.000242823, Final residual = 2.2333e-05, No Iterations 15

Time = 648

smoothSolver:  Solving for Ux, Initial residual = 3.94265e-07, Final residual = 3.31018e-08, No Iterations 5
smoothSolver:  Solving for Uy, Initial residual = 2.43294e-07, Final residual = 2.06841e-08, No Iterations 5
GAMG:  Solving for p, Initial residual = 1.11639e-06, Final residual = 5.61781e-08, No Iterations 2
time step continuity errors : sum local = 1.29632e-07, global = -1.4074e-09, cumulative = 0.0202016
smoothSolver:  Solving for omega, Initial residual = 3.44577e-08, Final residual = 9.11391e-09, No Iterations 2
smoothSolver:  Solving for k, Initial residual = 5.40046e-08, Final residual = 7.20556e-09, No Iterations 4
ExecutionTime = 8.29 s  ClockTime = 8 s

scalarTransport execute: age
smoothSolver:  Solving for age, Initial residual = 0.00024242, Final residual = 2.22959e-05, No Iterations 15

Time = 649

smoothSolver:  Solving for Ux, Initial residual = 3.90254e-07, Final residual = 3.27565e-08, No Iterations 5
smoothSolver:  Solving for Uy, Initial residual = 2.4086e-07, Final residual = 2.04811e-08, No Iterations 5
GAMG:  Solving for p, Initial residual = 1.10619e-06, Final residual = 5.56522e-08, No Iterations 2
time step continuity errors : sum local = 1.28419e-07, global = -1.37381e-09, cumulative = 0.0202016
smoothSolver:  Solving for omega, Initial residual = 3.41607e-08, Final residual = 9.0416e-09, No Iterations 2
smoothSolver:  Solving for k, Initial residual = 5.32432e-08, Final residual = 7.09416e-09, No Iterations 4
ExecutionTime = 8.3 s  ClockTime = 8 s

scalarTransport execute: age
smoothSolver:  Solving for age, Initial residual = 0.000242018, Final residual = 2.2259e-05, No Iterations 15

Time = 650

smoothSolver:  Solving for Ux, Initial residual = 3.86281e-07, Final residual = 3.24142e-08, No Iterations 5
smoothSolver:  Solving for Uy, Initial residual = 2.38451e-07, Final residual = 2.02785e-08, No Iterations 5
GAMG:  Solving for p, Initial residual = 1.09589e-06, Final residual = 5.52135e-08, No Iterations 2
time step continuity errors : sum local = 1.27406e-07, global = -1.78887e-09, cumulative = 0.0202016
smoothSolver:  Solving for omega, Initial residual = 3.37764e-08, Final residual = 8.96501e-09, No Iterations 2
smoothSolver:  Solving for k, Initial residual = 5.2508e-08, Final residual = 6.98499e-09, No Iterations 4
ExecutionTime = 8.31 s  ClockTime = 8 s

scalarTransport execute: age
smoothSolver:  Solving for age, Initial residual = 0.000241617, Final residual = 2.22222e-05, No Iterations 15

Time = 651

smoothSolver:  Solving for Ux, Initial residual = 3.8251e-07, Final residual = 3.21011e-08, No Iterations 5
smoothSolver:  Solving for Uy, Initial residual = 2.35976e-07, Final residual = 2.00731e-08, No Iterations 5
GAMG:  Solving for p, Initial residual = 1.08511e-06, Final residual = 5.4305e-08, No Iterations 2
time step continuity errors : sum local = 1.2531e-07, global = -1.81313e-09, cumulative = 0.0202016
smoothSolver:  Solving for omega, Initial residual = 3.3632e-08, Final residual = 8.89098e-09, No Iterations 2
smoothSolver:  Solving for k, Initial residual = 5.17408e-08, Final residual = 6.8768e-09, No Iterations 4
ExecutionTime = 8.32 s  ClockTime = 8 s

scalarTransport execute: age
smoothSolver:  Solving for age, Initial residual = 0.000241218, Final residual = 2.21856e-05, No Iterations 15

Time = 652

smoothSolver:  Solving for Ux, Initial residual = 3.78483e-07, Final residual = 3.17473e-08, No Iterations 5
smoothSolver:  Solving for Uy, Initial residual = 2.33548e-07, Final residual = 1.98652e-08, No Iterations 5
GAMG:  Solving for p, Initial residual = 1.07457e-06, Final residual = 5.36611e-08, No Iterations 2
time step continuity errors : sum local = 1.23824e-07, global = -1.76245e-09, cumulative = 0.0202016
smoothSolver:  Solving for omega, Initial residual = 3.32376e-08, Final residual = 8.81602e-09, No Iterations 2
smoothSolver:  Solving for k, Initial residual = 5.10066e-08, Final residual = 6.7703e-09, No Iterations 4
ExecutionTime = 8.34 s  ClockTime = 8 s

scalarTransport execute: age
smoothSolver:  Solving for age, Initial residual = 0.00024082, Final residual = 2.21492e-05, No Iterations 15

Time = 653

smoothSolver:  Solving for Ux, Initial residual = 3.74437e-07, Final residual = 3.13959e-08, No Iterations 5
smoothSolver:  Solving for Uy, Initial residual = 2.31197e-07, Final residual = 1.96669e-08, No Iterations 5
GAMG:  Solving for p, Initial residual = 1.06448e-06, Final residual = 5.3134e-08, No Iterations 2
time step continuity errors : sum local = 1.22608e-07, global = -1.71985e-09, cumulative = 0.0202016
smoothSolver:  Solving for omega, Initial residual = 3.29503e-08, Final residual = 8.74301e-09, No Iterations 2
smoothSolver:  Solving for k, Initial residual = 5.02865e-08, Final residual = 6.66539e-09, No Iterations 4
ExecutionTime = 8.35 s  ClockTime = 8 s

scalarTransport execute: age
smoothSolver:  Solving for age, Initial residual = 0.000240424, Final residual = 2.2113e-05, No Iterations 15

Time = 654

smoothSolver:  Solving for Ux, Initial residual = 3.70394e-07, Final residual = 3.10482e-08, No Iterations 5
smoothSolver:  Solving for Uy, Initial residual = 2.2886e-07, Final residual = 1.94696e-08, No Iterations 5
GAMG:  Solving for p, Initial residual = 1.05459e-06, Final residual = 5.2657e-08, No Iterations 2
time step continuity errors : sum local = 1.21507e-07, global = -1.67146e-09, cumulative = 0.0202016
smoothSolver:  Solving for omega, Initial residual = 3.26318e-08, Final residual = 8.66718e-09, No Iterations 2
smoothSolver:  Solving for k, Initial residual = 4.95673e-08, Final residual = 6.56199e-09, No Iterations 4
ExecutionTime = 8.36 s  ClockTime = 8 s

scalarTransport execute: age
smoothSolver:  Solving for age, Initial residual = 0.000240029, Final residual = 2.20768e-05, No Iterations 15

Time = 655

smoothSolver:  Solving for Ux, Initial residual = 3.66401e-07, Final residual = 3.07051e-08, No Iterations 5
smoothSolver:  Solving for Uy, Initial residual = 2.26499e-07, Final residual = 1.92697e-08, No Iterations 5
GAMG:  Solving for p, Initial residual = 1.04447e-06, Final residual = 5.21667e-08, No Iterations 2
time step continuity errors : sum local = 1.20376e-07, global = -1.63951e-09, cumulative = 0.0202016
smoothSolver:  Solving for omega, Initial residual = 3.23228e-08, Final residual = 8.59105e-09, No Iterations 2
smoothSolver:  Solving for k, Initial residual = 4.88565e-08, Final residual = 6.46032e-09, No Iterations 4
ExecutionTime = 8.37 s  ClockTime = 8 s

scalarTransport execute: age
smoothSolver:  Solving for age, Initial residual = 0.000239634, Final residual = 2.20407e-05, No Iterations 15

Time = 656

smoothSolver:  Solving for Ux, Initial residual = 3.62437e-07, Final residual = 3.03667e-08, No Iterations 5
smoothSolver:  Solving for Uy, Initial residual = 2.24093e-07, Final residual = 1.9068e-08, No Iterations 5
GAMG:  Solving for p, Initial residual = 1.03411e-06, Final residual = 5.16448e-08, No Iterations 2
time step continuity errors : sum local = 1.19171e-07, global = -1.61058e-09, cumulative = 0.0202016
smoothSolver:  Solving for omega, Initial residual = 3.20132e-08, Final residual = 8.51354e-09, No Iterations 2
smoothSolver:  Solving for k, Initial residual = 4.81515e-08, Final residual = 6.36025e-09, No Iterations 4
ExecutionTime = 8.39 s  ClockTime = 8 s

scalarTransport execute: age
smoothSolver:  Solving for age, Initial residual = 0.000239241, Final residual = 2.20047e-05, No Iterations 15

Time = 657

smoothSolver:  Solving for Ux, Initial residual = 3.58512e-07, Final residual = 3.00321e-08, No Iterations 5
smoothSolver:  Solving for Uy, Initial residual = 2.21697e-07, Final residual = 1.88659e-08, No Iterations 5
GAMG:  Solving for p, Initial residual = 1.02366e-06, Final residual = 5.10984e-08, No Iterations 2
time step continuity errors : sum local = 1.1791e-07, global = -1.59212e-09, cumulative = 0.0202016
smoothSolver:  Solving for omega, Initial residual = 3.16974e-08, Final residual = 8.43517e-09, No Iterations 2
smoothSolver:  Solving for k, Initial residual = 4.74585e-08, Final residual = 6.26179e-09, No Iterations 4
ExecutionTime = 8.4 s  ClockTime = 8 s

scalarTransport execute: age
smoothSolver:  Solving for age, Initial residual = 0.000238848, Final residual = 2.19688e-05, No Iterations 15

Time = 658

smoothSolver:  Solving for Ux, Initial residual = 3.54608e-07, Final residual = 2.97e-08, No Iterations 5
smoothSolver:  Solving for Uy, Initial residual = 2.19296e-07, Final residual = 1.86639e-08, No Iterations 5
GAMG:  Solving for p, Initial residual = 1.01321e-06, Final residual = 5.05394e-08, No Iterations 2
time step continuity errors : sum local = 1.16621e-07, global = -1.58196e-09, cumulative = 0.0202016
smoothSolver:  Solving for omega, Initial residual = 3.13834e-08, Final residual = 8.3565e-09, No Iterations 2
smoothSolver:  Solving for k, Initial residual = 4.67743e-08, Final residual = 6.16503e-09, No Iterations 4
ExecutionTime = 8.41 s  ClockTime = 8 s

scalarTransport execute: age
smoothSolver:  Solving for age, Initial residual = 0.000238456, Final residual = 2.19329e-05, No Iterations 15

Time = 659

smoothSolver:  Solving for Ux, Initial residual = 3.50719e-07, Final residual = 2.93697e-08, No Iterations 5
smoothSolver:  Solving for Uy, Initial residual = 2.16895e-07, Final residual = 1.84617e-08, No Iterations 5
GAMG:  Solving for p, Initial residual = 1.00282e-06, Final residual = 4.99762e-08, No Iterations 2
time step continuity errors : sum local = 1.15321e-07, global = -1.582e-09, cumulative = 0.0202016
smoothSolver:  Solving for omega, Initial residual = 3.10671e-08, Final residual = 8.27773e-09, No Iterations 2
smoothSolver:  Solving for k, Initial residual = 4.60997e-08, Final residual = 9.87044e-09, No Iterations 3
ExecutionTime = 8.42 s  ClockTime = 8 s

scalarTransport execute: age
smoothSolver:  Solving for age, Initial residual = 0.000238065, Final residual = 2.18971e-05, No Iterations 15

Time = 660

smoothSolver:  Solving for Ux, Initial residual = 3.46776e-07, Final residual = 2.90378e-08, No Iterations 5
smoothSolver:  Solving for Uy, Initial residual = 2.14551e-07, Final residual = 1.82658e-08, No Iterations 5
GAMG:  Solving for p, Initial residual = 9.91894e-07, Final residual = 4.9414e-08, No Iterations 2
time step continuity errors : sum local = 1.14024e-07, global = -1.59058e-09, cumulative = 0.0202016
smoothSolver:  Solving for omega, Initial residual = 3.06625e-08, Final residual = 8.19447e-09, No Iterations 2
smoothSolver:  Solving for k, Initial residual = 4.56402e-08, Final residual = 9.76092e-09, No Iterations 3
ExecutionTime = 8.44 s  ClockTime = 8 s


SIMPLE solution converged in 660 iterations

scalarTransport execute: age
smoothSolver:  Solving for age, Initial residual = 0.000237675, Final residual = 2.18614e-05, No Iterations 15

End

