/*---------------------------------------------------------------------------*\
| =========                 |                                                 |
| \\      /  F ield         | OpenFOAM: The Open Source CFD Toolbox           |
|  \\    /   O peration     | Version:  v2012                                 |
|   \\  /    A nd           | Website:  www.openfoam.com                      |
|    \\/     M anipulation  |                                                 |
\*---------------------------------------------------------------------------*/
Build  : _7bdb509494-20201222 OPENFOAM=2012
Arch   : "LSB;label=32;scalar=64"
Exec   : simpleFoam
Date   : Feb 23 2023
Time   : 14:02:46
Host   : johnsDesktop
PID    : 4616
I/O    : uncollated
Case   : /home/john/of_runs/cases/dbl_0_17_1-00880_9
nProcs : 1
trapFpe: Floating point exception trapping enabled (FOAM_SIGFPE).
fileModificationChecking : Monitoring run-time modified files using timeStampMaster (fileModificationSkew 5, maxFileModificationPolls 20)
allowSystemOperations : Allowing user-supplied system call operations

// * * * * * * * * * * * * * * * * * * * * * * * * * * * * * * * * * * * * * //
Create time

Create mesh for time = 0


SIMPLE: convergence criteria
    field p	 tolerance 1e-06
    field U	 tolerance 1e-06
    field "(k|epsilon|omega|f|v2|age)"	 tolerance 1e-05

Reading field p

Reading field U

Reading/calculating face flux field phi

Selecting incompressible transport model Newtonian
Selecting turbulence model type RAS
Selecting RAS turbulence model kOmegaSST
Selecting patchDistMethod meshWave
RAS
{
    RASModel        kOmegaSST;
    turbulence      on;
    printCoeffs     on;
    alphaK1         0.85;
    alphaK2         1;
    alphaOmega1     0.5;
    alphaOmega2     0.856;
    gamma1          0.555556;
    gamma2          0.44;
    beta1           0.075;
    beta2           0.0828;
    betaStar        0.09;
    a1              0.31;
    b1              1;
    c1              10;
    F3              false;
    decayControl    false;
    kInf            0;
    omegaInf        0;
}

No MRF models present

No finite volume options present

Starting time loop

Selecting finite volume options type scalarSemiImplicitSource
    Source: unitySource
    - selecting all cells
    - selected 6598 cell(s) with volume 0.03183
Time = 1

smoothSolver:  Solving for Ux, Initial residual = 0, Final residual = 0, No Iterations 0
smoothSolver:  Solving for Uy, Initial residual = 1, Final residual = 0.0665904, No Iterations 2
GAMG:  Solving for p, Initial residual = 1, Final residual = 0.089955, No Iterations 6
time step continuity errors : sum local = 0.00565221, global = -0.000888447, cumulative = -0.000888447
smoothSolver:  Solving for omega, Initial residual = 0.273931, Final residual = 0.013518, No Iterations 3
smoothSolver:  Solving for k, Initial residual = 1, Final residual = 0.0837569, No Iterations 3
ExecutionTime = 0.06 s  ClockTime = 0 s

scalarTransport execute: age
smoothSolver:  Solving for age, Initial residual = 1, Final residual = 0.0908098, No Iterations 5

Time = 2

smoothSolver:  Solving for Ux, Initial residual = 0.595896, Final residual = 0.050043, No Iterations 6
smoothSolver:  Solving for Uy, Initial residual = 0.276977, Final residual = 0.026572, No Iterations 5
GAMG:  Solving for p, Initial residual = 0.0506445, Final residual = 0.00194906, No Iterations 4
time step continuity errors : sum local = 0.0213318, global = 0.00182791, cumulative = 0.00093946
smoothSolver:  Solving for omega, Initial residual = 0.261491, Final residual = 0.0259672, No Iterations 3
smoothSolver:  Solving for k, Initial residual = 0.621939, Final residual = 0.0577258, No Iterations 4
ExecutionTime = 0.07 s  ClockTime = 0 s

scalarTransport execute: age
smoothSolver:  Solving for age, Initial residual = 0.588082, Final residual = 0.0523576, No Iterations 7

Time = 3

smoothSolver:  Solving for Ux, Initial residual = 0.22472, Final residual = 0.0218339, No Iterations 5
smoothSolver:  Solving for Uy, Initial residual = 0.09978, Final residual = 0.00821259, No Iterations 5
GAMG:  Solving for p, Initial residual = 0.0567171, Final residual = 0.00464094, No Iterations 3
time step continuity errors : sum local = 0.0212747, global = 0.00200436, cumulative = 0.00294382
smoothSolver:  Solving for omega, Initial residual = 0.259146, Final residual = 0.0247194, No Iterations 4
smoothSolver:  Solving for k, Initial residual = 0.523081, Final residual = 0.0386566, No Iterations 5
ExecutionTime = 0.08 s  ClockTime = 0 s

scalarTransport execute: age
smoothSolver:  Solving for age, Initial residual = 0.378145, Final residual = 0.0365344, No Iterations 8

Time = 4

smoothSolver:  Solving for Ux, Initial residual = 0.112291, Final residual = 0.00991886, No Iterations 4
smoothSolver:  Solving for Uy, Initial residual = 0.0489042, Final residual = 0.00331709, No Iterations 5
GAMG:  Solving for p, Initial residual = 0.0752732, Final residual = 0.00387713, No Iterations 3
time step continuity errors : sum local = 0.0109108, global = 0.000434022, cumulative = 0.00337784
smoothSolver:  Solving for omega, Initial residual = 0.152423, Final residual = 0.0104694, No Iterations 5
smoothSolver:  Solving for k, Initial residual = 0.452211, Final residual = 0.0377235, No Iterations 5
ExecutionTime = 0.09 s  ClockTime = 0 s

scalarTransport execute: age
smoothSolver:  Solving for age, Initial residual = 0.314197, Final residual = 0.0298009, No Iterations 4

Time = 5

smoothSolver:  Solving for Ux, Initial residual = 0.0718603, Final residual = 0.00570034, No Iterations 5
smoothSolver:  Solving for Uy, Initial residual = 0.0324428, Final residual = 0.00213606, No Iterations 5
GAMG:  Solving for p, Initial residual = 0.0730045, Final residual = 0.0030138, No Iterations 2
time step continuity errors : sum local = 0.00737926, global = 0.000196715, cumulative = 0.00357456
smoothSolver:  Solving for omega, Initial residual = 0.104019, Final residual = 0.00789298, No Iterations 5
smoothSolver:  Solving for k, Initial residual = 0.366549, Final residual = 0.0330739, No Iterations 5
ExecutionTime = 0.11 s  ClockTime = 0 s

scalarTransport execute: age
smoothSolver:  Solving for age, Initial residual = 0.218535, Final residual = 0.0190465, No Iterations 7

Time = 6

smoothSolver:  Solving for Ux, Initial residual = 0.0544151, Final residual = 0.005344, No Iterations 5
smoothSolver:  Solving for Uy, Initial residual = 0.0266478, Final residual = 0.00192738, No Iterations 5
GAMG:  Solving for p, Initial residual = 0.0578251, Final residual = 0.00306746, No Iterations 2
time step continuity errors : sum local = 0.00801665, global = 5.47292e-05, cumulative = 0.00362928
smoothSolver:  Solving for omega, Initial residual = 0.0807022, Final residual = 0.00653588, No Iterations 5
smoothSolver:  Solving for k, Initial residual = 0.292035, Final residual = 0.0279423, No Iterations 5
ExecutionTime = 0.12 s  ClockTime = 0 s

scalarTransport execute: age
smoothSolver:  Solving for age, Initial residual = 0.169831, Final residual = 0.0148096, No Iterations 9

Time = 7

smoothSolver:  Solving for Ux, Initial residual = 0.0476252, Final residual = 0.00315644, No Iterations 6
smoothSolver:  Solving for Uy, Initial residual = 0.0233813, Final residual = 0.00179419, No Iterations 5
GAMG:  Solving for p, Initial residual = 0.0480949, Final residual = 0.0035976, No Iterations 2
time step continuity errors : sum local = 0.00954857, global = -0.000426798, cumulative = 0.00320249
smoothSolver:  Solving for omega, Initial residual = 0.0620854, Final residual = 0.00535565, No Iterations 5
smoothSolver:  Solving for k, Initial residual = 0.24073, Final residual = 0.0240289, No Iterations 5
ExecutionTime = 0.13 s  ClockTime = 0 s

scalarTransport execute: age
smoothSolver:  Solving for age, Initial residual = 0.136356, Final residual = 0.0133601, No Iterations 10

Time = 8

smoothSolver:  Solving for Ux, Initial residual = 0.0400861, Final residual = 0.00382529, No Iterations 5
smoothSolver:  Solving for Uy, Initial residual = 0.0213765, Final residual = 0.00174836, No Iterations 5
GAMG:  Solving for p, Initial residual = 0.0400564, Final residual = 0.00292124, No Iterations 2
time step continuity errors : sum local = 0.00810188, global = -0.000679555, cumulative = 0.00252293
smoothSolver:  Solving for omega, Initial residual = 0.0493442, Final residual = 0.00443168, No Iterations 5
smoothSolver:  Solving for k, Initial residual = 0.2041, Final residual = 0.0133886, No Iterations 6
ExecutionTime = 0.14 s  ClockTime = 0 s

scalarTransport execute: age
smoothSolver:  Solving for age, Initial residual = 0.117892, Final residual = 0.0114396, No Iterations 11

Time = 9

smoothSolver:  Solving for Ux, Initial residual = 0.0361705, Final residual = 0.0034144, No Iterations 5
smoothSolver:  Solving for Uy, Initial residual = 0.0201871, Final residual = 0.00168675, No Iterations 5
GAMG:  Solving for p, Initial residual = 0.0340185, Final residual = 0.00187216, No Iterations 2
time step continuity errors : sum local = 0.0054048, global = -0.000625916, cumulative = 0.00189702
smoothSolver:  Solving for omega, Initial residual = 0.0406087, Final residual = 0.00375011, No Iterations 5
smoothSolver:  Solving for k, Initial residual = 0.176822, Final residual = 0.0119524, No Iterations 6
ExecutionTime = 0.16 s  ClockTime = 0 s

scalarTransport execute: age
smoothSolver:  Solving for age, Initial residual = 0.105891, Final residual = 0.0097413, No Iterations 12

Time = 10

smoothSolver:  Solving for Ux, Initial residual = 0.034694, Final residual = 0.00339448, No Iterations 5
smoothSolver:  Solving for Uy, Initial residual = 0.0193619, Final residual = 0.00164877, No Iterations 5
GAMG:  Solving for p, Initial residual = 0.0294742, Final residual = 0.00083624, No Iterations 2
time step continuity errors : sum local = 0.00246963, global = -0.000552044, cumulative = 0.00134497
smoothSolver:  Solving for omega, Initial residual = 0.033835, Final residual = 0.0032081, No Iterations 5
smoothSolver:  Solving for k, Initial residual = 0.155405, Final residual = 0.0107685, No Iterations 6
ExecutionTime = 0.17 s  ClockTime = 0 s

scalarTransport execute: age
smoothSolver:  Solving for age, Initial residual = 0.0967502, Final residual = 0.00930247, No Iterations 12

Time = 11

smoothSolver:  Solving for Ux, Initial residual = 0.0320456, Final residual = 0.0021063, No Iterations 6
smoothSolver:  Solving for Uy, Initial residual = 0.0186295, Final residual = 0.00165347, No Iterations 5
GAMG:  Solving for p, Initial residual = 0.0267777, Final residual = 0.000880699, No Iterations 2
time step continuity errors : sum local = 0.00259792, global = -0.000436771, cumulative = 0.0009082
smoothSolver:  Solving for omega, Initial residual = 0.0285412, Final residual = 0.00276078, No Iterations 5
smoothSolver:  Solving for k, Initial residual = 0.138241, Final residual = 0.00977409, No Iterations 6
ExecutionTime = 0.18 s  ClockTime = 0 s

scalarTransport execute: age
smoothSolver:  Solving for age, Initial residual = 0.0874996, Final residual = 0.00867105, No Iterations 12

Time = 12

smoothSolver:  Solving for Ux, Initial residual = 0.0301181, Final residual = 0.00200713, No Iterations 6
smoothSolver:  Solving for Uy, Initial residual = 0.0180927, Final residual = 0.00165609, No Iterations 5
GAMG:  Solving for p, Initial residual = 0.0248918, Final residual = 0.000901915, No Iterations 2
time step continuity errors : sum local = 0.00265571, global = -0.000305781, cumulative = 0.00060242
smoothSolver:  Solving for omega, Initial residual = 0.0243526, Final residual = 0.0023959, No Iterations 5
smoothSolver:  Solving for k, Initial residual = 0.124253, Final residual = 0.00893326, No Iterations 6
ExecutionTime = 0.19 s  ClockTime = 0 s

scalarTransport execute: age
smoothSolver:  Solving for age, Initial residual = 0.0789331, Final residual = 0.00679859, No Iterations 13

Time = 13

smoothSolver:  Solving for Ux, Initial residual = 0.0288199, Final residual = 0.00193371, No Iterations 6
smoothSolver:  Solving for Uy, Initial residual = 0.0176654, Final residual = 0.00165464, No Iterations 5
GAMG:  Solving for p, Initial residual = 0.0235417, Final residual = 0.000883792, No Iterations 2
time step continuity errors : sum local = 0.0025865, global = -0.000151427, cumulative = 0.000450993
smoothSolver:  Solving for omega, Initial residual = 0.0210274, Final residual = 0.00209586, No Iterations 5
smoothSolver:  Solving for k, Initial residual = 0.112622, Final residual = 0.00821195, No Iterations 6
ExecutionTime = 0.21 s  ClockTime = 0 s

scalarTransport execute: age
smoothSolver:  Solving for age, Initial residual = 0.0706156, Final residual = 0.00604783, No Iterations 13

Time = 14

smoothSolver:  Solving for Ux, Initial residual = 0.0277897, Final residual = 0.0018713, No Iterations 6
smoothSolver:  Solving for Uy, Initial residual = 0.0173514, Final residual = 0.00164839, No Iterations 5
GAMG:  Solving for p, Initial residual = 0.0224402, Final residual = 0.000864667, No Iterations 2
time step continuity errors : sum local = 0.00251466, global = 5.54761e-06, cumulative = 0.000456541
smoothSolver:  Solving for omega, Initial residual = 0.0183273, Final residual = 0.00118046, No Iterations 6
smoothSolver:  Solving for k, Initial residual = 0.102553, Final residual = 0.00757074, No Iterations 6
ExecutionTime = 0.22 s  ClockTime = 0 s

scalarTransport execute: age
smoothSolver:  Solving for age, Initial residual = 0.0622699, Final residual = 0.00608442, No Iterations 12

Time = 15

smoothSolver:  Solving for Ux, Initial residual = 0.0267953, Final residual = 0.00181073, No Iterations 6
smoothSolver:  Solving for Uy, Initial residual = 0.0169915, Final residual = 0.00163004, No Iterations 5
GAMG:  Solving for p, Initial residual = 0.0215365, Final residual = 0.000840226, No Iterations 2
time step continuity errors : sum local = 0.00242706, global = 0.000144706, cumulative = 0.000601246
smoothSolver:  Solving for omega, Initial residual = 0.0159735, Final residual = 0.00104061, No Iterations 6
smoothSolver:  Solving for k, Initial residual = 0.0938427, Final residual = 0.00700413, No Iterations 6
ExecutionTime = 0.23 s  ClockTime = 0 s

scalarTransport execute: age
smoothSolver:  Solving for age, Initial residual = 0.0540343, Final residual = 0.00516829, No Iterations 12

Time = 16

smoothSolver:  Solving for Ux, Initial residual = 0.0259418, Final residual = 0.00175798, No Iterations 6
smoothSolver:  Solving for Uy, Initial residual = 0.0166709, Final residual = 0.00160301, No Iterations 5
GAMG:  Solving for p, Initial residual = 0.0207189, Final residual = 0.000804485, No Iterations 2
time step continuity errors : sum local = 0.00230626, global = 0.000262296, cumulative = 0.000863542
smoothSolver:  Solving for omega, Initial residual = 0.014066, Final residual = 0.000923404, No Iterations 6
smoothSolver:  Solving for k, Initial residual = 0.0864087, Final residual = 0.00650862, No Iterations 6
ExecutionTime = 0.25 s  ClockTime = 0 s

scalarTransport execute: age
smoothSolver:  Solving for age, Initial residual = 0.0464402, Final residual = 0.00436104, No Iterations 12

Time = 17

smoothSolver:  Solving for Ux, Initial residual = 0.0252223, Final residual = 0.00171334, No Iterations 6
smoothSolver:  Solving for Uy, Initial residual = 0.0163309, Final residual = 0.00156927, No Iterations 5
GAMG:  Solving for p, Initial residual = 0.0199937, Final residual = 0.000767084, No Iterations 2
time step continuity errors : sum local = 0.00218073, global = 0.00035286, cumulative = 0.0012164
smoothSolver:  Solving for omega, Initial residual = 0.0124693, Final residual = 0.000824839, No Iterations 6
smoothSolver:  Solving for k, Initial residual = 0.0799718, Final residual = 0.00607092, No Iterations 6
ExecutionTime = 0.26 s  ClockTime = 0 s

scalarTransport execute: age
smoothSolver:  Solving for age, Initial residual = 0.0397427, Final residual = 0.00367989, No Iterations 12

Time = 18

smoothSolver:  Solving for Ux, Initial residual = 0.0245584, Final residual = 0.00167586, No Iterations 6
smoothSolver:  Solving for Uy, Initial residual = 0.0159203, Final residual = 0.00153162, No Iterations 5
GAMG:  Solving for p, Initial residual = 0.0192576, Final residual = 0.000740656, No Iterations 2
time step continuity errors : sum local = 0.00208797, global = 0.00041071, cumulative = 0.00162711
smoothSolver:  Solving for omega, Initial residual = 0.0111448, Final residual = 0.000741085, No Iterations 6
smoothSolver:  Solving for k, Initial residual = 0.0743376, Final residual = 0.00568066, No Iterations 6
ExecutionTime = 0.27 s  ClockTime = 0 s

scalarTransport execute: age
smoothSolver:  Solving for age, Initial residual = 0.0341352, Final residual = 0.00320006, No Iterations 12

Time = 19

smoothSolver:  Solving for Ux, Initial residual = 0.0239837, Final residual = 0.00164356, No Iterations 6
smoothSolver:  Solving for Uy, Initial residual = 0.0154986, Final residual = 0.00149102, No Iterations 5
GAMG:  Solving for p, Initial residual = 0.0184946, Final residual = 0.000719063, No Iterations 2
time step continuity errors : sum local = 0.00200816, global = 0.000433704, cumulative = 0.00206082
smoothSolver:  Solving for omega, Initial residual = 0.0100253, Final residual = 0.000669225, No Iterations 6
smoothSolver:  Solving for k, Initial residual = 0.0693747, Final residual = 0.00533187, No Iterations 6
ExecutionTime = 0.28 s  ClockTime = 0 s

scalarTransport execute: age
smoothSolver:  Solving for age, Initial residual = 0.0298327, Final residual = 0.00284337, No Iterations 12

Time = 20

smoothSolver:  Solving for Ux, Initial residual = 0.0234913, Final residual = 0.00161547, No Iterations 6
smoothSolver:  Solving for Uy, Initial residual = 0.0150206, Final residual = 0.00144844, No Iterations 5
GAMG:  Solving for p, Initial residual = 0.0176682, Final residual = 0.000694654, No Iterations 2
time step continuity errors : sum local = 0.00192434, global = 0.000426978, cumulative = 0.00248779
smoothSolver:  Solving for omega, Initial residual = 0.00907244, Final residual = 0.000607402, No Iterations 6
smoothSolver:  Solving for k, Initial residual = 0.0649719, Final residual = 0.00501807, No Iterations 6
ExecutionTime = 0.3 s  ClockTime = 0 s

scalarTransport execute: age
smoothSolver:  Solving for age, Initial residual = 0.026531, Final residual = 0.00242953, No Iterations 12

Time = 21

smoothSolver:  Solving for Ux, Initial residual = 0.0230333, Final residual = 0.00159133, No Iterations 6
smoothSolver:  Solving for Uy, Initial residual = 0.0145322, Final residual = 0.00140599, No Iterations 5
GAMG:  Solving for p, Initial residual = 0.0167777, Final residual = 0.0006629, No Iterations 2
time step continuity errors : sum local = 0.00182121, global = 0.00040129, cumulative = 0.00288908
smoothSolver:  Solving for omega, Initial residual = 0.00824378, Final residual = 0.000553615, No Iterations 6
smoothSolver:  Solving for k, Initial residual = 0.0610355, Final residual = 0.00473436, No Iterations 6
ExecutionTime = 0.31 s  ClockTime = 0 s

scalarTransport execute: age
smoothSolver:  Solving for age, Initial residual = 0.0238543, Final residual = 0.0023645, No Iterations 11

Time = 22

smoothSolver:  Solving for Ux, Initial residual = 0.0226358, Final residual = 0.00157132, No Iterations 6
smoothSolver:  Solving for Uy, Initial residual = 0.0140589, Final residual = 0.00136527, No Iterations 5
GAMG:  Solving for p, Initial residual = 0.0159998, Final residual = 0.000627863, No Iterations 2
time step continuity errors : sum local = 0.0017104, global = 0.000366441, cumulative = 0.00325553
smoothSolver:  Solving for omega, Initial residual = 0.00752822, Final residual = 0.000506601, No Iterations 6
smoothSolver:  Solving for k, Initial residual = 0.0574947, Final residual = 0.00447646, No Iterations 6
ExecutionTime = 0.32 s  ClockTime = 0 s

scalarTransport execute: age
smoothSolver:  Solving for age, Initial residual = 0.0214731, Final residual = 0.00194318, No Iterations 11

Time = 23

smoothSolver:  Solving for Ux, Initial residual = 0.0222692, Final residual = 0.00155589, No Iterations 6
smoothSolver:  Solving for Uy, Initial residual = 0.0136262, Final residual = 0.00132534, No Iterations 5
GAMG:  Solving for p, Initial residual = 0.0154971, Final residual = 0.000593111, No Iterations 2
time step continuity errors : sum local = 0.00160378, global = 0.000328091, cumulative = 0.00358362
smoothSolver:  Solving for omega, Initial residual = 0.00690741, Final residual = 0.000465358, No Iterations 6
smoothSolver:  Solving for k, Initial residual = 0.0542948, Final residual = 0.00424131, No Iterations 6
ExecutionTime = 0.34 s  ClockTime = 0 s

scalarTransport execute: age
smoothSolver:  Solving for age, Initial residual = 0.0193398, Final residual = 0.0018954, No Iterations 10

Time = 24

smoothSolver:  Solving for Ux, Initial residual = 0.0219559, Final residual = 0.00154431, No Iterations 6
smoothSolver:  Solving for Uy, Initial residual = 0.0132512, Final residual = 0.0012866, No Iterations 5
GAMG:  Solving for p, Initial residual = 0.0153453, Final residual = 0.000565896, No Iterations 2
time step continuity errors : sum local = 0.00152139, global = 0.000290894, cumulative = 0.00387451
smoothSolver:  Solving for omega, Initial residual = 0.00636446, Final residual = 0.000428888, No Iterations 6
smoothSolver:  Solving for k, Initial residual = 0.0513816, Final residual = 0.00402522, No Iterations 6
ExecutionTime = 0.35 s  ClockTime = 0 s

scalarTransport execute: age
smoothSolver:  Solving for age, Initial residual = 0.0176186, Final residual = 0.00160041, No Iterations 10

Time = 25

smoothSolver:  Solving for Ux, Initial residual = 0.0217159, Final residual = 0.00153651, No Iterations 6
smoothSolver:  Solving for Uy, Initial residual = 0.0128828, Final residual = 0.00124812, No Iterations 5
GAMG:  Solving for p, Initial residual = 0.015402, Final residual = 0.000546606, No Iterations 2
time step continuity errors : sum local = 0.00146526, global = 0.000257854, cumulative = 0.00413236
smoothSolver:  Solving for omega, Initial residual = 0.005891, Final residual = 0.000396399, No Iterations 6
smoothSolver:  Solving for k, Initial residual = 0.0487156, Final residual = 0.00382613, No Iterations 6
ExecutionTime = 0.36 s  ClockTime = 0 s

scalarTransport execute: age
smoothSolver:  Solving for age, Initial residual = 0.0165549, Final residual = 0.00140348, No Iterations 10

Time = 26

smoothSolver:  Solving for Ux, Initial residual = 0.0215809, Final residual = 0.00153145, No Iterations 6
smoothSolver:  Solving for Uy, Initial residual = 0.012524, Final residual = 0.00120878, No Iterations 5
GAMG:  Solving for p, Initial residual = 0.0152415, Final residual = 0.000544703, No Iterations 2
time step continuity errors : sum local = 0.0014505, global = 0.00022891, cumulative = 0.00436127
smoothSolver:  Solving for omega, Initial residual = 0.00547095, Final residual = 0.000367242, No Iterations 6
smoothSolver:  Solving for k, Initial residual = 0.0462665, Final residual = 0.00364205, No Iterations 6
ExecutionTime = 0.37 s  ClockTime = 0 s

scalarTransport execute: age
smoothSolver:  Solving for age, Initial residual = 0.0153982, Final residual = 0.00153092, No Iterations 9

Time = 27

smoothSolver:  Solving for Ux, Initial residual = 0.0215238, Final residual = 0.00152797, No Iterations 6
smoothSolver:  Solving for Uy, Initial residual = 0.0121524, Final residual = 0.00116742, No Iterations 5
GAMG:  Solving for p, Initial residual = 0.0150683, Final residual = 0.000550343, No Iterations 2
time step continuity errors : sum local = 0.00146084, global = 0.000206127, cumulative = 0.0045674
smoothSolver:  Solving for omega, Initial residual = 0.00509469, Final residual = 0.000341028, No Iterations 6
smoothSolver:  Solving for k, Initial residual = 0.0440055, Final residual = 0.00347133, No Iterations 6
ExecutionTime = 0.39 s  ClockTime = 0 s

scalarTransport execute: age
smoothSolver:  Solving for age, Initial residual = 0.0148205, Final residual = 0.00147795, No Iterations 9

Time = 28

smoothSolver:  Solving for Ux, Initial residual = 0.0215007, Final residual = 0.00152622, No Iterations 6
smoothSolver:  Solving for Uy, Initial residual = 0.0117484, Final residual = 0.00112452, No Iterations 5
GAMG:  Solving for p, Initial residual = 0.0148151, Final residual = 0.000549489, No Iterations 2
time step continuity errors : sum local = 0.00145489, global = 0.000188811, cumulative = 0.00475621
smoothSolver:  Solving for omega, Initial residual = 0.00475506, Final residual = 0.000317293, No Iterations 6
smoothSolver:  Solving for k, Initial residual = 0.0419126, Final residual = 0.00331276, No Iterations 6
ExecutionTime = 0.4 s  ClockTime = 0 s

scalarTransport execute: age
smoothSolver:  Solving for age, Initial residual = 0.0146044, Final residual = 0.00125361, No Iterations 10

Time = 29

smoothSolver:  Solving for Ux, Initial residual = 0.0215007, Final residual = 0.0015256, No Iterations 6
smoothSolver:  Solving for Uy, Initial residual = 0.0113007, Final residual = 0.00108016, No Iterations 5
GAMG:  Solving for p, Initial residual = 0.0144019, Final residual = 0.000544493, No Iterations 2
time step continuity errors : sum local = 0.00143937, global = 0.000174738, cumulative = 0.00493095
smoothSolver:  Solving for omega, Initial residual = 0.00445005, Final residual = 0.00029581, No Iterations 6
smoothSolver:  Solving for k, Initial residual = 0.0399706, Final residual = 0.00316518, No Iterations 6
ExecutionTime = 0.41 s  ClockTime = 0 s

scalarTransport execute: age
smoothSolver:  Solving for age, Initial residual = 0.0145613, Final residual = 0.00126566, No Iterations 10

Time = 30

smoothSolver:  Solving for Ux, Initial residual = 0.0215247, Final residual = 0.00152625, No Iterations 6
smoothSolver:  Solving for Uy, Initial residual = 0.0108371, Final residual = 0.0010353, No Iterations 5
GAMG:  Solving for p, Initial residual = 0.0137645, Final residual = 0.000529849, No Iterations 2
time step continuity errors : sum local = 0.00139913, global = 0.000163402, cumulative = 0.00509435
smoothSolver:  Solving for omega, Initial residual = 0.00417503, Final residual = 0.000276286, No Iterations 6
smoothSolver:  Solving for k, Initial residual = 0.0381607, Final residual = 0.00302768, No Iterations 6
ExecutionTime = 0.42 s  ClockTime = 0 s

scalarTransport execute: age
smoothSolver:  Solving for age, Initial residual = 0.014645, Final residual = 0.00130688, No Iterations 10

Time = 31

smoothSolver:  Solving for Ux, Initial residual = 0.0215335, Final residual = 0.00152742, No Iterations 6
smoothSolver:  Solving for Uy, Initial residual = 0.0103623, Final residual = 0.000991525, No Iterations 5
GAMG:  Solving for p, Initial residual = 0.013167, Final residual = 0.000509234, No Iterations 2
time step continuity errors : sum local = 0.00134629, global = 0.000155064, cumulative = 0.00524942
smoothSolver:  Solving for omega, Initial residual = 0.00392366, Final residual = 0.000258323, No Iterations 6
smoothSolver:  Solving for k, Initial residual = 0.0364741, Final residual = 0.00289941, No Iterations 6
ExecutionTime = 0.44 s  ClockTime = 0 s

scalarTransport execute: age
smoothSolver:  Solving for age, Initial residual = 0.0149017, Final residual = 0.00137267, No Iterations 10

Time = 32

smoothSolver:  Solving for Ux, Initial residual = 0.0215186, Final residual = 0.00152866, No Iterations 6
smoothSolver:  Solving for Uy, Initial residual = 0.00988779, Final residual = 0.000951166, No Iterations 5
GAMG:  Solving for p, Initial residual = 0.0125618, Final residual = 0.00048823, No Iterations 2
time step continuity errors : sum local = 0.0012895, global = 0.000144487, cumulative = 0.0053939
smoothSolver:  Solving for omega, Initial residual = 0.00369708, Final residual = 0.000241839, No Iterations 6
smoothSolver:  Solving for k, Initial residual = 0.0349002, Final residual = 0.00277988, No Iterations 6
ExecutionTime = 0.45 s  ClockTime = 0 s

scalarTransport execute: age
smoothSolver:  Solving for age, Initial residual = 0.0153329, Final residual = 0.00145958, No Iterations 10

Time = 33

smoothSolver:  Solving for Ux, Initial residual = 0.0214738, Final residual = 0.00152919, No Iterations 6
smoothSolver:  Solving for Uy, Initial residual = 0.0094767, Final residual = 0.000914737, No Iterations 5
GAMG:  Solving for p, Initial residual = 0.0121793, Final residual = 0.000481731, No Iterations 2
time step continuity errors : sum local = 0.001271, global = 0.000135888, cumulative = 0.00552979
smoothSolver:  Solving for omega, Initial residual = 0.00348691, Final residual = 0.000226719, No Iterations 6
smoothSolver:  Solving for k, Initial residual = 0.0334351, Final residual = 0.00266844, No Iterations 6
ExecutionTime = 0.46 s  ClockTime = 0 s

scalarTransport execute: age
smoothSolver:  Solving for age, Initial residual = 0.0156929, Final residual = 0.00155732, No Iterations 10

Time = 34

smoothSolver:  Solving for Ux, Initial residual = 0.0213884, Final residual = 0.00152701, No Iterations 6
smoothSolver:  Solving for Uy, Initial residual = 0.00912269, Final residual = 0.000883014, No Iterations 5
GAMG:  Solving for p, Initial residual = 0.011973, Final residual = 0.00049364, No Iterations 2
time step continuity errors : sum local = 0.00129876, global = 0.000128578, cumulative = 0.00565837
smoothSolver:  Solving for omega, Initial residual = 0.00329397, Final residual = 0.000328041, No Iterations 5
smoothSolver:  Solving for k, Initial residual = 0.0321013, Final residual = 0.00256666, No Iterations 6
ExecutionTime = 0.47 s  ClockTime = 0 s

scalarTransport execute: age
smoothSolver:  Solving for age, Initial residual = 0.0161135, Final residual = 0.00142628, No Iterations 11

Time = 35

smoothSolver:  Solving for Ux, Initial residual = 0.0213291, Final residual = 0.00152262, No Iterations 6
smoothSolver:  Solving for Uy, Initial residual = 0.00880841, Final residual = 0.000856321, No Iterations 5
GAMG:  Solving for p, Initial residual = 0.011805, Final residual = 0.000513775, No Iterations 2
time step continuity errors : sum local = 0.00135008, global = 0.000123428, cumulative = 0.0057818
smoothSolver:  Solving for omega, Initial residual = 0.003131, Final residual = 0.000309595, No Iterations 5
smoothSolver:  Solving for k, Initial residual = 0.0308776, Final residual = 0.0024727, No Iterations 6
ExecutionTime = 0.49 s  ClockTime = 0 s

scalarTransport execute: age
smoothSolver:  Solving for age, Initial residual = 0.0164909, Final residual = 0.00148581, No Iterations 11

Time = 36

smoothSolver:  Solving for Ux, Initial residual = 0.0212661, Final residual = 0.0015156, No Iterations 6
smoothSolver:  Solving for Uy, Initial residual = 0.00853964, Final residual = 0.000834525, No Iterations 5
GAMG:  Solving for p, Initial residual = 0.0115084, Final residual = 0.00053661, No Iterations 2
time step continuity errors : sum local = 0.00140634, global = 0.000124862, cumulative = 0.00590666
smoothSolver:  Solving for omega, Initial residual = 0.00298029, Final residual = 0.000292379, No Iterations 5
smoothSolver:  Solving for k, Initial residual = 0.0297341, Final residual = 0.00238444, No Iterations 6
ExecutionTime = 0.5 s  ClockTime = 0 s

scalarTransport execute: age
smoothSolver:  Solving for age, Initial residual = 0.0167787, Final residual = 0.0015577, No Iterations 11

Time = 37

smoothSolver:  Solving for Ux, Initial residual = 0.0211625, Final residual = 0.0015052, No Iterations 6
smoothSolver:  Solving for Uy, Initial residual = 0.00831435, Final residual = 0.000818239, No Iterations 5
GAMG:  Solving for p, Initial residual = 0.011306, Final residual = 0.000564299, No Iterations 2
time step continuity errors : sum local = 0.00147709, global = 0.000128208, cumulative = 0.00603487
smoothSolver:  Solving for omega, Initial residual = 0.00283813, Final residual = 0.000276267, No Iterations 5
smoothSolver:  Solving for k, Initial residual = 0.0286688, Final residual = 0.00230168, No Iterations 6
ExecutionTime = 0.52 s  ClockTime = 0 s

scalarTransport execute: age
smoothSolver:  Solving for age, Initial residual = 0.0169877, Final residual = 0.00162077, No Iterations 11

Time = 38

smoothSolver:  Solving for Ux, Initial residual = 0.0210256, Final residual = 0.00149292, No Iterations 6
smoothSolver:  Solving for Uy, Initial residual = 0.00815352, Final residual = 0.000807558, No Iterations 5
GAMG:  Solving for p, Initial residual = 0.011187, Final residual = 0.000596573, No Iterations 2
time step continuity errors : sum local = 0.00156073, global = 0.000134503, cumulative = 0.00616937
smoothSolver:  Solving for omega, Initial residual = 0.0027061, Final residual = 0.000261173, No Iterations 5
smoothSolver:  Solving for k, Initial residual = 0.0276759, Final residual = 0.0022238, No Iterations 6
ExecutionTime = 0.53 s  ClockTime = 1 s

scalarTransport execute: age
smoothSolver:  Solving for age, Initial residual = 0.0171789, Final residual = 0.00166031, No Iterations 11

Time = 39

smoothSolver:  Solving for Ux, Initial residual = 0.02086, Final residual = 0.00147861, No Iterations 6
smoothSolver:  Solving for Uy, Initial residual = 0.00804407, Final residual = 0.000802501, No Iterations 5
GAMG:  Solving for p, Initial residual = 0.0111593, Final residual = 0.000627196, No Iterations 2
time step continuity errors : sum local = 0.00164093, global = 0.000142176, cumulative = 0.00631155
smoothSolver:  Solving for omega, Initial residual = 0.00258655, Final residual = 0.000246986, No Iterations 5
smoothSolver:  Solving for k, Initial residual = 0.0267507, Final residual = 0.00215056, No Iterations 6
ExecutionTime = 0.54 s  ClockTime = 1 s

scalarTransport execute: age
smoothSolver:  Solving for age, Initial residual = 0.0172917, Final residual = 0.00168306, No Iterations 11

Time = 40

smoothSolver:  Solving for Ux, Initial residual = 0.0206784, Final residual = 0.00146351, No Iterations 6
smoothSolver:  Solving for Uy, Initial residual = 0.00797971, Final residual = 0.000523252, No Iterations 6
GAMG:  Solving for p, Initial residual = 0.0110178, Final residual = 0.000637793, No Iterations 2
time step continuity errors : sum local = 0.00166608, global = 0.000151369, cumulative = 0.00646292
smoothSolver:  Solving for omega, Initial residual = 0.00247431, Final residual = 0.000233655, No Iterations 5
smoothSolver:  Solving for k, Initial residual = 0.0258892, Final residual = 0.00208184, No Iterations 6
ExecutionTime = 0.56 s  ClockTime = 1 s

scalarTransport execute: age
smoothSolver:  Solving for age, Initial residual = 0.0173649, Final residual = 0.00168036, No Iterations 11

Time = 41

smoothSolver:  Solving for Ux, Initial residual = 0.0204895, Final residual = 0.00144894, No Iterations 6
smoothSolver:  Solving for Uy, Initial residual = 0.0078741, Final residual = 0.000521262, No Iterations 6
GAMG:  Solving for p, Initial residual = 0.0108524, Final residual = 0.000651736, No Iterations 2
time step continuity errors : sum local = 0.00169812, global = 0.000160454, cumulative = 0.00662337
smoothSolver:  Solving for omega, Initial residual = 0.00236981, Final residual = 0.000221167, No Iterations 5
smoothSolver:  Solving for k, Initial residual = 0.025083, Final residual = 0.0020171, No Iterations 6
ExecutionTime = 0.57 s  ClockTime = 1 s

scalarTransport execute: age
smoothSolver:  Solving for age, Initial residual = 0.0172462, Final residual = 0.00166799, No Iterations 11

Time = 42

smoothSolver:  Solving for Ux, Initial residual = 0.020285, Final residual = 0.00143411, No Iterations 6
smoothSolver:  Solving for Uy, Initial residual = 0.00782972, Final residual = 0.000523951, No Iterations 6
GAMG:  Solving for p, Initial residual = 0.0107038, Final residual = 0.000668211, No Iterations 2
time step continuity errors : sum local = 0.00173672, global = 0.000168914, cumulative = 0.00679228
smoothSolver:  Solving for omega, Initial residual = 0.00226729, Final residual = 0.000209596, No Iterations 5
smoothSolver:  Solving for k, Initial residual = 0.024325, Final residual = 0.00195592, No Iterations 6
ExecutionTime = 0.58 s  ClockTime = 1 s

scalarTransport execute: age
smoothSolver:  Solving for age, Initial residual = 0.0170187, Final residual = 0.00167467, No Iterations 11

Time = 43

smoothSolver:  Solving for Ux, Initial residual = 0.0200638, Final residual = 0.00141935, No Iterations 6
smoothSolver:  Solving for Uy, Initial residual = 0.00784872, Final residual = 0.000531628, No Iterations 6
GAMG:  Solving for p, Initial residual = 0.0105238, Final residual = 0.000686535, No Iterations 2
time step continuity errors : sum local = 0.00178024, global = 0.000175388, cumulative = 0.00696767
smoothSolver:  Solving for omega, Initial residual = 0.00216396, Final residual = 0.000198818, No Iterations 5
smoothSolver:  Solving for k, Initial residual = 0.0236097, Final residual = 0.00189817, No Iterations 6
ExecutionTime = 0.6 s  ClockTime = 1 s

scalarTransport execute: age
smoothSolver:  Solving for age, Initial residual = 0.016982, Final residual = 0.00150756, No Iterations 12

Time = 44

smoothSolver:  Solving for Ux, Initial residual = 0.0198275, Final residual = 0.00140429, No Iterations 6
smoothSolver:  Solving for Uy, Initial residual = 0.00792322, Final residual = 0.000543705, No Iterations 6
GAMG:  Solving for p, Initial residual = 0.010341, Final residual = 0.000699907, No Iterations 2
time step continuity errors : sum local = 0.00181152, global = 0.00017922, cumulative = 0.00714689
smoothSolver:  Solving for omega, Initial residual = 0.00206857, Final residual = 0.000188813, No Iterations 5
smoothSolver:  Solving for k, Initial residual = 0.0229356, Final residual = 0.00184353, No Iterations 6
ExecutionTime = 0.61 s  ClockTime = 1 s

scalarTransport execute: age
smoothSolver:  Solving for age, Initial residual = 0.0169162, Final residual = 0.00155827, No Iterations 12

Time = 45

smoothSolver:  Solving for Ux, Initial residual = 0.0195873, Final residual = 0.00138929, No Iterations 6
smoothSolver:  Solving for Uy, Initial residual = 0.00802972, Final residual = 0.000558522, No Iterations 6
GAMG:  Solving for p, Initial residual = 0.0101473, Final residual = 0.000715588, No Iterations 2
time step continuity errors : sum local = 0.00184858, global = 0.000182368, cumulative = 0.00732926
smoothSolver:  Solving for omega, Initial residual = 0.0019795, Final residual = 0.00017941, No Iterations 5
smoothSolver:  Solving for k, Initial residual = 0.0222987, Final residual = 0.00179173, No Iterations 6
ExecutionTime = 0.62 s  ClockTime = 1 s

scalarTransport execute: age
smoothSolver:  Solving for age, Initial residual = 0.0169448, Final residual = 0.00160682, No Iterations 12

Time = 46

smoothSolver:  Solving for Ux, Initial residual = 0.0193228, Final residual = 0.00137311, No Iterations 6
smoothSolver:  Solving for Uy, Initial residual = 0.00815757, Final residual = 0.000575031, No Iterations 6
GAMG:  Solving for p, Initial residual = 0.00993901, Final residual = 0.000729934, No Iterations 2
time step continuity errors : sum local = 0.00188321, global = 0.000184792, cumulative = 0.00751405
smoothSolver:  Solving for omega, Initial residual = 0.00189961, Final residual = 0.00017043, No Iterations 5
smoothSolver:  Solving for k, Initial residual = 0.0217019, Final residual = 0.00174275, No Iterations 6
ExecutionTime = 0.64 s  ClockTime = 1 s

scalarTransport execute: age
smoothSolver:  Solving for age, Initial residual = 0.0171222, Final residual = 0.00165565, No Iterations 12

Time = 47

smoothSolver:  Solving for Ux, Initial residual = 0.0190245, Final residual = 0.00135572, No Iterations 6
smoothSolver:  Solving for Uy, Initial residual = 0.0083106, Final residual = 0.000592602, No Iterations 6
GAMG:  Solving for p, Initial residual = 0.00970284, Final residual = 0.000742243, No Iterations 2
time step continuity errors : sum local = 0.00191335, global = 0.000186552, cumulative = 0.0077006
smoothSolver:  Solving for omega, Initial residual = 0.00181983, Final residual = 0.000162062, No Iterations 5
smoothSolver:  Solving for k, Initial residual = 0.0211382, Final residual = 0.0016962, No Iterations 6
ExecutionTime = 0.65 s  ClockTime = 1 s

scalarTransport execute: age
smoothSolver:  Solving for age, Initial residual = 0.0173688, Final residual = 0.00170183, No Iterations 12

Time = 48

smoothSolver:  Solving for Ux, Initial residual = 0.0187194, Final residual = 0.00133768, No Iterations 6
smoothSolver:  Solving for Uy, Initial residual = 0.00847476, Final residual = 0.000610731, No Iterations 6
GAMG:  Solving for p, Initial residual = 0.00947683, Final residual = 0.00075324, No Iterations 2
time step continuity errors : sum local = 0.00193983, global = 0.000187622, cumulative = 0.00788823
smoothSolver:  Solving for omega, Initial residual = 0.00174633, Final residual = 0.000154249, No Iterations 5
smoothSolver:  Solving for k, Initial residual = 0.0206042, Final residual = 0.00165182, No Iterations 6
ExecutionTime = 0.66 s  ClockTime = 1 s

scalarTransport execute: age
smoothSolver:  Solving for age, Initial residual = 0.0176302, Final residual = 0.00174555, No Iterations 12

Time = 49

smoothSolver:  Solving for Ux, Initial residual = 0.0184077, Final residual = 0.00131944, No Iterations 6
smoothSolver:  Solving for Uy, Initial residual = 0.00864514, Final residual = 0.000628667, No Iterations 6
GAMG:  Solving for p, Initial residual = 0.00929986, Final residual = 0.000765584, No Iterations 2
time step continuity errors : sum local = 0.00196982, global = 0.000189705, cumulative = 0.00807793
smoothSolver:  Solving for omega, Initial residual = 0.0016765, Final residual = 0.000146892, No Iterations 5
smoothSolver:  Solving for k, Initial residual = 0.020098, Final residual = 0.00160952, No Iterations 6
ExecutionTime = 0.68 s  ClockTime = 1 s

scalarTransport execute: age
smoothSolver:  Solving for age, Initial residual = 0.017816, Final residual = 0.00156092, No Iterations 13

Time = 50

smoothSolver:  Solving for Ux, Initial residual = 0.0180951, Final residual = 0.00130077, No Iterations 6
smoothSolver:  Solving for Uy, Initial residual = 0.00882427, Final residual = 0.000646275, No Iterations 6
GAMG:  Solving for p, Initial residual = 0.00913721, Final residual = 0.000776758, No Iterations 2
time step continuity errors : sum local = 0.00199589, global = 0.000191282, cumulative = 0.00826921
smoothSolver:  Solving for omega, Initial residual = 0.00161241, Final residual = 0.000140096, No Iterations 5
smoothSolver:  Solving for k, Initial residual = 0.0196194, Final residual = 0.00156914, No Iterations 6
ExecutionTime = 0.69 s  ClockTime = 1 s

scalarTransport execute: age
smoothSolver:  Solving for age, Initial residual = 0.0179275, Final residual = 0.00158363, No Iterations 13

Time = 51

smoothSolver:  Solving for Ux, Initial residual = 0.0178106, Final residual = 0.00128265, No Iterations 6
smoothSolver:  Solving for Uy, Initial residual = 0.00900729, Final residual = 0.000662931, No Iterations 6
GAMG:  Solving for p, Initial residual = 0.00902915, Final residual = 0.00078924, No Iterations 2
time step continuity errors : sum local = 0.00202461, global = 0.000193836, cumulative = 0.00846305
smoothSolver:  Solving for omega, Initial residual = 0.0015561, Final residual = 0.000133859, No Iterations 5
smoothSolver:  Solving for k, Initial residual = 0.0191648, Final residual = 0.00153056, No Iterations 6
ExecutionTime = 0.7 s  ClockTime = 1 s

scalarTransport execute: age
smoothSolver:  Solving for age, Initial residual = 0.0180184, Final residual = 0.00160448, No Iterations 13

Time = 52

smoothSolver:  Solving for Ux, Initial residual = 0.017548, Final residual = 0.00126494, No Iterations 6
smoothSolver:  Solving for Uy, Initial residual = 0.00918482, Final residual = 0.000678422, No Iterations 6
GAMG:  Solving for p, Initial residual = 0.00897145, Final residual = 0.000807103, No Iterations 2
time step continuity errors : sum local = 0.00206604, global = 0.000195521, cumulative = 0.00865857
smoothSolver:  Solving for omega, Initial residual = 0.00150757, Final residual = 0.000128051, No Iterations 5
smoothSolver:  Solving for k, Initial residual = 0.0187327, Final residual = 0.0014937, No Iterations 6
ExecutionTime = 0.72 s  ClockTime = 1 s

scalarTransport execute: age
smoothSolver:  Solving for age, Initial residual = 0.0180792, Final residual = 0.00162292, No Iterations 13

Time = 53

smoothSolver:  Solving for Ux, Initial residual = 0.0172985, Final residual = 0.0012473, No Iterations 6
smoothSolver:  Solving for Uy, Initial residual = 0.00934539, Final residual = 0.000692395, No Iterations 6
GAMG:  Solving for p, Initial residual = 0.00874543, Final residual = 0.000817178, No Iterations 2
time step continuity errors : sum local = 0.00208395, global = 0.000195511, cumulative = 0.00885408
smoothSolver:  Solving for omega, Initial residual = 0.00145047, Final residual = 0.000122602, No Iterations 5
smoothSolver:  Solving for k, Initial residual = 0.0183217, Final residual = 0.0014584, No Iterations 6
ExecutionTime = 0.73 s  ClockTime = 1 s

scalarTransport execute: age
smoothSolver:  Solving for age, Initial residual = 0.0182282, Final residual = 0.0016386, No Iterations 13

Time = 54

smoothSolver:  Solving for Ux, Initial residual = 0.0170537, Final residual = 0.00123016, No Iterations 6
smoothSolver:  Solving for Uy, Initial residual = 0.0094762, Final residual = 0.000704603, No Iterations 6
GAMG:  Solving for p, Initial residual = 0.00862962, Final residual = 0.000827773, No Iterations 2
time step continuity errors : sum local = 0.00210298, global = 0.000194386, cumulative = 0.00904847
smoothSolver:  Solving for omega, Initial residual = 0.00140686, Final residual = 0.000117623, No Iterations 5
smoothSolver:  Solving for k, Initial residual = 0.0179276, Final residual = 0.00142451, No Iterations 6
ExecutionTime = 0.74 s  ClockTime = 1 s

scalarTransport execute: age
smoothSolver:  Solving for age, Initial residual = 0.0184221, Final residual = 0.00165311, No Iterations 13

Time = 55

smoothSolver:  Solving for Ux, Initial residual = 0.0168175, Final residual = 0.00121345, No Iterations 6
smoothSolver:  Solving for Uy, Initial residual = 0.00958652, Final residual = 0.000714807, No Iterations 6
GAMG:  Solving for p, Initial residual = 0.00861359, Final residual = 0.000838043, No Iterations 2
time step continuity errors : sum local = 0.0021216, global = 0.000192026, cumulative = 0.00924049
smoothSolver:  Solving for omega, Initial residual = 0.0013701, Final residual = 0.000113087, No Iterations 5
smoothSolver:  Solving for k, Initial residual = 0.0175479, Final residual = 0.00139187, No Iterations 6
ExecutionTime = 0.75 s  ClockTime = 1 s

scalarTransport execute: age
smoothSolver:  Solving for age, Initial residual = 0.018645, Final residual = 0.00166672, No Iterations 13

Time = 56

smoothSolver:  Solving for Ux, Initial residual = 0.0165911, Final residual = 0.00119711, No Iterations 6
smoothSolver:  Solving for Uy, Initial residual = 0.00967477, Final residual = 0.00072319, No Iterations 6
GAMG:  Solving for p, Initial residual = 0.00866962, Final residual = 0.000850206, No Iterations 2
time step continuity errors : sum local = 0.00214464, global = 0.000189032, cumulative = 0.00942953
smoothSolver:  Solving for omega, Initial residual = 0.00133643, Final residual = 0.000108933, No Iterations 5
smoothSolver:  Solving for k, Initial residual = 0.0171835, Final residual = 0.00136044, No Iterations 6
ExecutionTime = 0.77 s  ClockTime = 1 s

scalarTransport execute: age
smoothSolver:  Solving for age, Initial residual = 0.0188693, Final residual = 0.00168277, No Iterations 13

Time = 57

smoothSolver:  Solving for Ux, Initial residual = 0.0163952, Final residual = 0.00118134, No Iterations 6
smoothSolver:  Solving for Uy, Initial residual = 0.00973152, Final residual = 0.000729595, No Iterations 6
GAMG:  Solving for p, Initial residual = 0.00872643, Final residual = 0.000849652, No Iterations 2
time step continuity errors : sum local = 0.00213524, global = 0.000175705, cumulative = 0.00960523
smoothSolver:  Solving for omega, Initial residual = 0.00130414, Final residual = 0.0001051, No Iterations 5
smoothSolver:  Solving for k, Initial residual = 0.0168326, Final residual = 0.00133008, No Iterations 6
ExecutionTime = 0.78 s  ClockTime = 1 s

scalarTransport execute: age
smoothSolver:  Solving for age, Initial residual = 0.0191049, Final residual = 0.00170934, No Iterations 13

Time = 58

smoothSolver:  Solving for Ux, Initial residual = 0.0162502, Final residual = 0.00116818, No Iterations 6
smoothSolver:  Solving for Uy, Initial residual = 0.00976204, Final residual = 0.000733455, No Iterations 6
GAMG:  Solving for p, Initial residual = 0.00877149, Final residual = 0.000860811, No Iterations 2
time step continuity errors : sum local = 0.0021535, global = 0.000170104, cumulative = 0.00977533
smoothSolver:  Solving for omega, Initial residual = 0.00126957, Final residual = 0.000101574, No Iterations 5
smoothSolver:  Solving for k, Initial residual = 0.0164932, Final residual = 0.00130072, No Iterations 6
ExecutionTime = 0.79 s  ClockTime = 1 s

scalarTransport execute: age
smoothSolver:  Solving for age, Initial residual = 0.0192351, Final residual = 0.00175653, No Iterations 13

Time = 59

smoothSolver:  Solving for Ux, Initial residual = 0.0161091, Final residual = 0.001156, No Iterations 6
smoothSolver:  Solving for Uy, Initial residual = 0.00977487, Final residual = 0.000736206, No Iterations 6
GAMG:  Solving for p, Initial residual = 0.0088064, Final residual = 0.000866592, No Iterations 2
time step continuity errors : sum local = 0.00216077, global = 0.000165382, cumulative = 0.00994072
smoothSolver:  Solving for omega, Initial residual = 0.00124433, Final residual = 9.83022e-05, No Iterations 5
smoothSolver:  Solving for k, Initial residual = 0.0161656, Final residual = 0.00127236, No Iterations 6
ExecutionTime = 0.81 s  ClockTime = 1 s

scalarTransport execute: age
smoothSolver:  Solving for age, Initial residual = 0.0194229, Final residual = 0.00180089, No Iterations 13

Time = 60

smoothSolver:  Solving for Ux, Initial residual = 0.0159958, Final residual = 0.00114635, No Iterations 6
smoothSolver:  Solving for Uy, Initial residual = 0.00976306, Final residual = 0.000737078, No Iterations 6
GAMG:  Solving for p, Initial residual = 0.00882931, Final residual = 0.000865139, No Iterations 2
time step continuity errors : sum local = 0.0021502, global = 0.000161894, cumulative = 0.0101026
smoothSolver:  Solving for omega, Initial residual = 0.00121722, Final residual = 9.52719e-05, No Iterations 5
smoothSolver:  Solving for k, Initial residual = 0.0158472, Final residual = 0.00124483, No Iterations 6
ExecutionTime = 0.82 s  ClockTime = 1 s

scalarTransport execute: age
smoothSolver:  Solving for age, Initial residual = 0.0194987, Final residual = 0.00182674, No Iterations 13

Time = 61

smoothSolver:  Solving for Ux, Initial residual = 0.0159068, Final residual = 0.00113882, No Iterations 6
smoothSolver:  Solving for Uy, Initial residual = 0.00972725, Final residual = 0.000735826, No Iterations 6
GAMG:  Solving for p, Initial residual = 0.00887125, Final residual = 0.000859643, No Iterations 2
time step continuity errors : sum local = 0.00212854, global = 0.000159421, cumulative = 0.010262
smoothSolver:  Solving for omega, Initial residual = 0.00118931, Final residual = 9.24867e-05, No Iterations 5
smoothSolver:  Solving for k, Initial residual = 0.0155366, Final residual = 0.00121805, No Iterations 6
ExecutionTime = 0.83 s  ClockTime = 1 s

scalarTransport execute: age
smoothSolver:  Solving for age, Initial residual = 0.0196455, Final residual = 0.00184938, No Iterations 13

Time = 62

smoothSolver:  Solving for Ux, Initial residual = 0.0158378, Final residual = 0.00113278, No Iterations 6
smoothSolver:  Solving for Uy, Initial residual = 0.00966175, Final residual = 0.000732552, No Iterations 6
GAMG:  Solving for p, Initial residual = 0.00892113, Final residual = 0.000850475, No Iterations 2
time step continuity errors : sum local = 0.00209716, global = 0.000157862, cumulative = 0.0104199
smoothSolver:  Solving for omega, Initial residual = 0.00116277, Final residual = 8.99338e-05, No Iterations 5
smoothSolver:  Solving for k, Initial residual = 0.0152323, Final residual = 0.00119195, No Iterations 6
ExecutionTime = 0.84 s  ClockTime = 1 s

scalarTransport execute: age
smoothSolver:  Solving for age, Initial residual = 0.0197495, Final residual = 0.00186544, No Iterations 13

Time = 63

smoothSolver:  Solving for Ux, Initial residual = 0.015775, Final residual = 0.00112719, No Iterations 6
smoothSolver:  Solving for Uy, Initial residual = 0.00957121, Final residual = 0.000727347, No Iterations 6
GAMG:  Solving for p, Initial residual = 0.00895497, Final residual = 0.000837809, No Iterations 2
time step continuity errors : sum local = 0.00205534, global = 0.000156673, cumulative = 0.0105766
smoothSolver:  Solving for omega, Initial residual = 0.00113935, Final residual = 8.7581e-05, No Iterations 5
smoothSolver:  Solving for k, Initial residual = 0.0149346, Final residual = 0.00116649, No Iterations 6
ExecutionTime = 0.86 s  ClockTime = 1 s

scalarTransport execute: age
smoothSolver:  Solving for age, Initial residual = 0.0196823, Final residual = 0.00191077, No Iterations 13

Time = 64

smoothSolver:  Solving for Ux, Initial residual = 0.0157043, Final residual = 0.00112135, No Iterations 6
smoothSolver:  Solving for Uy, Initial residual = 0.00946411, Final residual = 0.000720505, No Iterations 6
GAMG:  Solving for p, Initial residual = 0.00901812, Final residual = 0.000821532, No Iterations 2
time step continuity errors : sum local = 0.00200511, global = 0.000155107, cumulative = 0.0107317
smoothSolver:  Solving for omega, Initial residual = 0.00111829, Final residual = 8.54321e-05, No Iterations 5
smoothSolver:  Solving for k, Initial residual = 0.0146412, Final residual = 0.0011415, No Iterations 6
ExecutionTime = 0.87 s  ClockTime = 1 s

scalarTransport execute: age
smoothSolver:  Solving for age, Initial residual = 0.0196585, Final residual = 0.00193983, No Iterations 13

Time = 65

smoothSolver:  Solving for Ux, Initial residual = 0.0156223, Final residual = 0.00111469, No Iterations 6
smoothSolver:  Solving for Uy, Initial residual = 0.00934431, Final residual = 0.000712373, No Iterations 6
GAMG:  Solving for p, Initial residual = 0.00908585, Final residual = 0.000803959, No Iterations 2
time step continuity errors : sum local = 0.00195166, global = 0.000152109, cumulative = 0.0108838
smoothSolver:  Solving for omega, Initial residual = 0.00109757, Final residual = 8.33564e-05, No Iterations 5
smoothSolver:  Solving for k, Initial residual = 0.0143531, Final residual = 0.0011169, No Iterations 6
ExecutionTime = 0.88 s  ClockTime = 1 s

scalarTransport execute: age
smoothSolver:  Solving for age, Initial residual = 0.0195279, Final residual = 0.00171412, No Iterations 14

Time = 66

smoothSolver:  Solving for Ux, Initial residual = 0.0155263, Final residual = 0.0011071, No Iterations 6
smoothSolver:  Solving for Uy, Initial residual = 0.00920688, Final residual = 0.000703005, No Iterations 6
GAMG:  Solving for p, Initial residual = 0.00911881, Final residual = 0.000784003, No Iterations 2
time step continuity errors : sum local = 0.00189323, global = 0.000147974, cumulative = 0.0110318
smoothSolver:  Solving for omega, Initial residual = 0.00107755, Final residual = 8.1392e-05, No Iterations 5
smoothSolver:  Solving for k, Initial residual = 0.0140687, Final residual = 0.00109265, No Iterations 6
ExecutionTime = 0.9 s  ClockTime = 1 s

scalarTransport execute: age
smoothSolver:  Solving for age, Initial residual = 0.0191734, Final residual = 0.00172828, No Iterations 14

Time = 67

smoothSolver:  Solving for Ux, Initial residual = 0.0154097, Final residual = 0.00109773, No Iterations 6
smoothSolver:  Solving for Uy, Initial residual = 0.0090616, Final residual = 0.000692572, No Iterations 6
GAMG:  Solving for p, Initial residual = 0.0091234, Final residual = 0.00076618, No Iterations 2
time step continuity errors : sum local = 0.00184105, global = 0.000142694, cumulative = 0.0111745
smoothSolver:  Solving for omega, Initial residual = 0.001054, Final residual = 7.94509e-05, No Iterations 5
smoothSolver:  Solving for k, Initial residual = 0.0137876, Final residual = 0.0010688, No Iterations 6
ExecutionTime = 0.91 s  ClockTime = 1 s

scalarTransport execute: age
smoothSolver:  Solving for age, Initial residual = 0.0188546, Final residual = 0.00173697, No Iterations 14

Time = 68

smoothSolver:  Solving for Ux, Initial residual = 0.0152657, Final residual = 0.00108628, No Iterations 6
smoothSolver:  Solving for Uy, Initial residual = 0.00890212, Final residual = 0.000681057, No Iterations 6
GAMG:  Solving for p, Initial residual = 0.00909694, Final residual = 0.000752037, No Iterations 2
time step continuity errors : sum local = 0.00179846, global = 0.000136504, cumulative = 0.011311
smoothSolver:  Solving for omega, Initial residual = 0.00103277, Final residual = 7.75307e-05, No Iterations 5
smoothSolver:  Solving for k, Initial residual = 0.01351, Final residual = 0.0010453, No Iterations 6
ExecutionTime = 0.92 s  ClockTime = 1 s

scalarTransport execute: age
smoothSolver:  Solving for age, Initial residual = 0.0184933, Final residual = 0.00173911, No Iterations 14

Time = 69

smoothSolver:  Solving for Ux, Initial residual = 0.0150878, Final residual = 0.00107274, No Iterations 6
smoothSolver:  Solving for Uy, Initial residual = 0.0087313, Final residual = 0.000668514, No Iterations 6
GAMG:  Solving for p, Initial residual = 0.0091024, Final residual = 0.000738663, No Iterations 2
time step continuity errors : sum local = 0.00175851, global = 0.000129555, cumulative = 0.0114405
smoothSolver:  Solving for omega, Initial residual = 0.00101003, Final residual = 7.58152e-05, No Iterations 5
smoothSolver:  Solving for k, Initial residual = 0.0132362, Final residual = 0.00102205, No Iterations 6
ExecutionTime = 0.92 s  ClockTime = 1 s

scalarTransport execute: age
smoothSolver:  Solving for age, Initial residual = 0.0181462, Final residual = 0.00173364, No Iterations 14

Time = 70

smoothSolver:  Solving for Ux, Initial residual = 0.0148787, Final residual = 0.00105731, No Iterations 6
smoothSolver:  Solving for Uy, Initial residual = 0.00855435, Final residual = 0.000655012, No Iterations 6
GAMG:  Solving for p, Initial residual = 0.0091021, Final residual = 0.000726845, No Iterations 2
time step continuity errors : sum local = 0.0017228, global = 0.000122514, cumulative = 0.011563
smoothSolver:  Solving for omega, Initial residual = 0.000988827, Final residual = 7.41548e-05, No Iterations 5
smoothSolver:  Solving for k, Initial residual = 0.0129658, Final residual = 0.000999018, No Iterations 6
ExecutionTime = 0.95 s  ClockTime = 1 s

scalarTransport execute: age
smoothSolver:  Solving for age, Initial residual = 0.0176996, Final residual = 0.00172234, No Iterations 14

Time = 71

smoothSolver:  Solving for Ux, Initial residual = 0.0146386, Final residual = 0.00104004, No Iterations 6
smoothSolver:  Solving for Uy, Initial residual = 0.0083662, Final residual = 0.000640641, No Iterations 6
GAMG:  Solving for p, Initial residual = 0.00907756, Final residual = 0.000715841, No Iterations 2
time step continuity errors : sum local = 0.0016891, global = 0.000116267, cumulative = 0.0116793
smoothSolver:  Solving for omega, Initial residual = 0.000968903, Final residual = 7.25335e-05, No Iterations 5
smoothSolver:  Solving for k, Initial residual = 0.0127005, Final residual = 0.000976204, No Iterations 6
ExecutionTime = 0.96 s  ClockTime = 1 s

scalarTransport execute: age
smoothSolver:  Solving for age, Initial residual = 0.0172019, Final residual = 0.00169244, No Iterations 14

Time = 72

smoothSolver:  Solving for Ux, Initial residual = 0.0143723, Final residual = 0.00102093, No Iterations 6
smoothSolver:  Solving for Uy, Initial residual = 0.008182, Final residual = 0.000625564, No Iterations 6
GAMG:  Solving for p, Initial residual = 0.00900652, Final residual = 0.000705308, No Iterations 2
time step continuity errors : sum local = 0.00165684, global = 0.000111045, cumulative = 0.0117903
smoothSolver:  Solving for omega, Initial residual = 0.000949614, Final residual = 7.09067e-05, No Iterations 5
smoothSolver:  Solving for k, Initial residual = 0.0124362, Final residual = 0.00095347, No Iterations 6
ExecutionTime = 0.97 s  ClockTime = 1 s

scalarTransport execute: age
smoothSolver:  Solving for age, Initial residual = 0.0165683, Final residual = 0.00164372, No Iterations 14

Time = 73

smoothSolver:  Solving for Ux, Initial residual = 0.014081, Final residual = 0.00100028, No Iterations 6
smoothSolver:  Solving for Uy, Initial residual = 0.00798153, Final residual = 0.000609808, No Iterations 6
GAMG:  Solving for p, Initial residual = 0.00888891, Final residual = 0.000694635, No Iterations 2
time step continuity errors : sum local = 0.00162454, global = 0.00010739, cumulative = 0.0118977
smoothSolver:  Solving for omega, Initial residual = 0.000930358, Final residual = 6.93021e-05, No Iterations 5
smoothSolver:  Solving for k, Initial residual = 0.0121724, Final residual = 0.000930732, No Iterations 6
ExecutionTime = 0.99 s  ClockTime = 1 s

scalarTransport execute: age
smoothSolver:  Solving for age, Initial residual = 0.0158446, Final residual = 0.00158222, No Iterations 14

Time = 74

smoothSolver:  Solving for Ux, Initial residual = 0.0137684, Final residual = 0.000977978, No Iterations 6
smoothSolver:  Solving for Uy, Initial residual = 0.00778369, Final residual = 0.000593384, No Iterations 6
GAMG:  Solving for p, Initial residual = 0.00873497, Final residual = 0.000683217, No Iterations 2
time step continuity errors : sum local = 0.00159091, global = 0.000105297, cumulative = 0.012003
smoothSolver:  Solving for omega, Initial residual = 0.000910649, Final residual = 6.76973e-05, No Iterations 5
smoothSolver:  Solving for k, Initial residual = 0.0119097, Final residual = 0.000907989, No Iterations 6
ExecutionTime = 1 s  ClockTime = 1 s

scalarTransport execute: age
smoothSolver:  Solving for age, Initial residual = 0.0151579, Final residual = 0.00132885, No Iterations 15

Time = 75

smoothSolver:  Solving for Ux, Initial residual = 0.0134335, Final residual = 0.000953832, No Iterations 6
smoothSolver:  Solving for Uy, Initial residual = 0.00757902, Final residual = 0.000576425, No Iterations 6
GAMG:  Solving for p, Initial residual = 0.00856188, Final residual = 0.00067008, No Iterations 2
time step continuity errors : sum local = 0.00155369, global = 0.000105021, cumulative = 0.012108
smoothSolver:  Solving for omega, Initial residual = 0.000892005, Final residual = 6.60899e-05, No Iterations 5
smoothSolver:  Solving for k, Initial residual = 0.0116482, Final residual = 0.000885294, No Iterations 6
ExecutionTime = 1.01 s  ClockTime = 1 s

scalarTransport execute: age
smoothSolver:  Solving for age, Initial residual = 0.0144503, Final residual = 0.00143066, No Iterations 14

Time = 76

smoothSolver:  Solving for Ux, Initial residual = 0.0130722, Final residual = 0.000927894, No Iterations 6
smoothSolver:  Solving for Uy, Initial residual = 0.00737644, Final residual = 0.000559002, No Iterations 6
GAMG:  Solving for p, Initial residual = 0.00836402, Final residual = 0.000655685, No Iterations 2
time step continuity errors : sum local = 0.00151361, global = 0.000106388, cumulative = 0.0122144
smoothSolver:  Solving for omega, Initial residual = 0.000881869, Final residual = 6.43178e-05, No Iterations 5
smoothSolver:  Solving for k, Initial residual = 0.0113894, Final residual = 0.000862724, No Iterations 6
ExecutionTime = 1.02 s  ClockTime = 1 s

scalarTransport execute: age
smoothSolver:  Solving for age, Initial residual = 0.0138019, Final residual = 0.00134023, No Iterations 14

Time = 77

smoothSolver:  Solving for Ux, Initial residual = 0.0126912, Final residual = 0.000901077, No Iterations 6
smoothSolver:  Solving for Uy, Initial residual = 0.00717009, Final residual = 0.000541201, No Iterations 6
GAMG:  Solving for p, Initial residual = 0.00817208, Final residual = 0.000641306, No Iterations 2
time step continuity errors : sum local = 0.00147383, global = 0.000109138, cumulative = 0.0123236
smoothSolver:  Solving for omega, Initial residual = 0.000865799, Final residual = 6.25716e-05, No Iterations 5
smoothSolver:  Solving for k, Initial residual = 0.0111315, Final residual = 0.00084018, No Iterations 6
ExecutionTime = 1.04 s  ClockTime = 1 s

scalarTransport execute: age
smoothSolver:  Solving for age, Initial residual = 0.0131914, Final residual = 0.00125425, No Iterations 14

Time = 78

smoothSolver:  Solving for Ux, Initial residual = 0.0123042, Final residual = 0.000873677, No Iterations 6
smoothSolver:  Solving for Uy, Initial residual = 0.00697117, Final residual = 0.000523024, No Iterations 6
GAMG:  Solving for p, Initial residual = 0.00797407, Final residual = 0.000627784, No Iterations 2
time step continuity errors : sum local = 0.00143628, global = 0.000113042, cumulative = 0.0124366
smoothSolver:  Solving for omega, Initial residual = 0.000846554, Final residual = 6.07817e-05, No Iterations 5
smoothSolver:  Solving for k, Initial residual = 0.0108738, Final residual = 0.000817651, No Iterations 6
ExecutionTime = 1.05 s  ClockTime = 1 s

scalarTransport execute: age
smoothSolver:  Solving for age, Initial residual = 0.0126493, Final residual = 0.00117911, No Iterations 14

Time = 79

smoothSolver:  Solving for Ux, Initial residual = 0.0119174, Final residual = 0.000845676, No Iterations 6
smoothSolver:  Solving for Uy, Initial residual = 0.00677228, Final residual = 0.000504633, No Iterations 6
GAMG:  Solving for p, Initial residual = 0.0077874, Final residual = 0.000617001, No Iterations 2
time step continuity errors : sum local = 0.0014046, global = 0.000117919, cumulative = 0.0125545
smoothSolver:  Solving for omega, Initial residual = 0.000828569, Final residual = 5.89637e-05, No Iterations 5
smoothSolver:  Solving for k, Initial residual = 0.0106164, Final residual = 0.000795139, No Iterations 6
ExecutionTime = 1.06 s  ClockTime = 1 s

scalarTransport execute: age
smoothSolver:  Solving for age, Initial residual = 0.0121335, Final residual = 0.00110085, No Iterations 14

Time = 80

smoothSolver:  Solving for Ux, Initial residual = 0.0115312, Final residual = 0.000817321, No Iterations 6
smoothSolver:  Solving for Uy, Initial residual = 0.00657336, Final residual = 0.000485943, No Iterations 6
GAMG:  Solving for p, Initial residual = 0.00765545, Final residual = 0.000607347, No Iterations 2
time step continuity errors : sum local = 0.00137597, global = 0.000123319, cumulative = 0.0126778
smoothSolver:  Solving for omega, Initial residual = 0.00080512, Final residual = 5.7016e-05, No Iterations 5
smoothSolver:  Solving for k, Initial residual = 0.0103579, Final residual = 0.000772605, No Iterations 6
ExecutionTime = 1.08 s  ClockTime = 1 s

scalarTransport execute: age
smoothSolver:  Solving for age, Initial residual = 0.0115823, Final residual = 0.00103045, No Iterations 14

Time = 81

smoothSolver:  Solving for Ux, Initial residual = 0.011146, Final residual = 0.000788948, No Iterations 6
smoothSolver:  Solving for Uy, Initial residual = 0.00636923, Final residual = 0.000466875, No Iterations 6
GAMG:  Solving for p, Initial residual = 0.00758528, Final residual = 0.000598761, No Iterations 2
time step continuity errors : sum local = 0.00135027, global = 0.000128833, cumulative = 0.0128067
smoothSolver:  Solving for omega, Initial residual = 0.000785557, Final residual = 5.51172e-05, No Iterations 5
smoothSolver:  Solving for k, Initial residual = 0.0100996, Final residual = 0.000749925, No Iterations 6
ExecutionTime = 1.09 s  ClockTime = 1 s

scalarTransport execute: age
smoothSolver:  Solving for age, Initial residual = 0.0110652, Final residual = 0.000971938, No Iterations 14

Time = 82

smoothSolver:  Solving for Ux, Initial residual = 0.0107569, Final residual = 0.000760092, No Iterations 6
smoothSolver:  Solving for Uy, Initial residual = 0.00615941, Final residual = 0.00044745, No Iterations 6
GAMG:  Solving for p, Initial residual = 0.00758776, Final residual = 0.000591361, No Iterations 2
time step continuity errors : sum local = 0.00132758, global = 0.000134113, cumulative = 0.0129408
smoothSolver:  Solving for omega, Initial residual = 0.000764123, Final residual = 5.31898e-05, No Iterations 5
smoothSolver:  Solving for k, Initial residual = 0.00984046, Final residual = 0.000727113, No Iterations 6
ExecutionTime = 1.1 s  ClockTime = 1 s

scalarTransport execute: age
smoothSolver:  Solving for age, Initial residual = 0.0105663, Final residual = 0.000926782, No Iterations 14

Time = 83

smoothSolver:  Solving for Ux, Initial residual = 0.0103668, Final residual = 0.0007311, No Iterations 6
smoothSolver:  Solving for Uy, Initial residual = 0.00594332, Final residual = 0.000427686, No Iterations 6
GAMG:  Solving for p, Initial residual = 0.00762287, Final residual = 0.000584835, No Iterations 2
time step continuity errors : sum local = 0.00130742, global = 0.000138966, cumulative = 0.0130798
smoothSolver:  Solving for omega, Initial residual = 0.000750452, Final residual = 5.13227e-05, No Iterations 5
smoothSolver:  Solving for k, Initial residual = 0.00958118, Final residual = 0.000704197, No Iterations 6
ExecutionTime = 1.12 s  ClockTime = 1 s

scalarTransport execute: age
smoothSolver:  Solving for age, Initial residual = 0.0100785, Final residual = 0.000899194, No Iterations 14

Time = 84

smoothSolver:  Solving for Ux, Initial residual = 0.00998271, Final residual = 0.000702054, No Iterations 6
smoothSolver:  Solving for Uy, Initial residual = 0.00572569, Final residual = 0.000407907, No Iterations 6
GAMG:  Solving for p, Initial residual = 0.0076644, Final residual = 0.000573439, No Iterations 2
time step continuity errors : sum local = 0.00127604, global = 0.000139672, cumulative = 0.0132194
smoothSolver:  Solving for omega, Initial residual = 0.000738086, Final residual = 4.96971e-05, No Iterations 5
smoothSolver:  Solving for k, Initial residual = 0.0093208, Final residual = 0.00068109, No Iterations 6
ExecutionTime = 1.13 s  ClockTime = 1 s

scalarTransport execute: age
smoothSolver:  Solving for age, Initial residual = 0.00961973, Final residual = 0.000879291, No Iterations 14

Time = 85

smoothSolver:  Solving for Ux, Initial residual = 0.00960366, Final residual = 0.000672937, No Iterations 6
smoothSolver:  Solving for Uy, Initial residual = 0.00551033, Final residual = 0.000388168, No Iterations 6
GAMG:  Solving for p, Initial residual = 0.00766282, Final residual = 0.000569603, No Iterations 2
time step continuity errors : sum local = 0.00126104, global = 0.000141606, cumulative = 0.013361
smoothSolver:  Solving for omega, Initial residual = 0.000727152, Final residual = 4.81401e-05, No Iterations 5
smoothSolver:  Solving for k, Initial residual = 0.00906077, Final residual = 0.00065778, No Iterations 6
ExecutionTime = 1.14 s  ClockTime = 1 s

scalarTransport execute: age
smoothSolver:  Solving for age, Initial residual = 0.0092153, Final residual = 0.000862411, No Iterations 14

Time = 86

smoothSolver:  Solving for Ux, Initial residual = 0.00922086, Final residual = 0.000643821, No Iterations 6
smoothSolver:  Solving for Uy, Initial residual = 0.00530386, Final residual = 0.000368939, No Iterations 6
GAMG:  Solving for p, Initial residual = 0.00761687, Final residual = 0.000564954, No Iterations 2
time step continuity errors : sum local = 0.00124598, global = 0.000144691, cumulative = 0.0135057
smoothSolver:  Solving for omega, Initial residual = 0.000718665, Final residual = 4.66124e-05, No Iterations 5
smoothSolver:  Solving for k, Initial residual = 0.00879887, Final residual = 0.000634314, No Iterations 6
ExecutionTime = 1.15 s  ClockTime = 1 s

scalarTransport execute: age
smoothSolver:  Solving for age, Initial residual = 0.00884034, Final residual = 0.000845585, No Iterations 14

Time = 87

smoothSolver:  Solving for Ux, Initial residual = 0.00883243, Final residual = 0.000614264, No Iterations 6
smoothSolver:  Solving for Uy, Initial residual = 0.00510727, Final residual = 0.0003505, No Iterations 6
GAMG:  Solving for p, Initial residual = 0.00749637, Final residual = 0.00055601, No Iterations 2
time step continuity errors : sum local = 0.00122139, global = 0.000146506, cumulative = 0.0136522
smoothSolver:  Solving for omega, Initial residual = 0.000710977, Final residual = 4.51215e-05, No Iterations 5
smoothSolver:  Solving for k, Initial residual = 0.00853535, Final residual = 0.000610765, No Iterations 6
ExecutionTime = 1.17 s  ClockTime = 1 s

scalarTransport execute: age
smoothSolver:  Solving for age, Initial residual = 0.00848184, Final residual = 0.000826776, No Iterations 14

Time = 88

smoothSolver:  Solving for Ux, Initial residual = 0.00844646, Final residual = 0.000585108, No Iterations 6
smoothSolver:  Solving for Uy, Initial residual = 0.00492698, Final residual = 0.000333318, No Iterations 6
GAMG:  Solving for p, Initial residual = 0.00736999, Final residual = 0.0005456, No Iterations 2
time step continuity errors : sum local = 0.00119457, global = 0.000148709, cumulative = 0.0138009
smoothSolver:  Solving for omega, Initial residual = 0.000702728, Final residual = 4.36714e-05, No Iterations 5
smoothSolver:  Solving for k, Initial residual = 0.00827087, Final residual = 0.000587193, No Iterations 6
ExecutionTime = 1.18 s  ClockTime = 1 s

scalarTransport execute: age
smoothSolver:  Solving for age, Initial residual = 0.00815272, Final residual = 0.000811543, No Iterations 14

Time = 89

smoothSolver:  Solving for Ux, Initial residual = 0.00805432, Final residual = 0.000555659, No Iterations 6
smoothSolver:  Solving for Uy, Initial residual = 0.00476947, Final residual = 0.000318003, No Iterations 6
GAMG:  Solving for p, Initial residual = 0.00722458, Final residual = 0.000533344, No Iterations 2
time step continuity errors : sum local = 0.00116398, global = 0.000150836, cumulative = 0.0139518
smoothSolver:  Solving for omega, Initial residual = 0.00069472, Final residual = 6.82972e-05, No Iterations 4
smoothSolver:  Solving for k, Initial residual = 0.00800447, Final residual = 0.000563654, No Iterations 6
ExecutionTime = 1.19 s  ClockTime = 1 s

scalarTransport execute: age
smoothSolver:  Solving for age, Initial residual = 0.00782438, Final residual = 0.000699773, No Iterations 15

Time = 90

smoothSolver:  Solving for Ux, Initial residual = 0.00766409, Final residual = 0.000526659, No Iterations 6
smoothSolver:  Solving for Uy, Initial residual = 0.0046327, Final residual = 0.000305094, No Iterations 6
GAMG:  Solving for p, Initial residual = 0.00708337, Final residual = 0.000520306, No Iterations 2
time step continuity errors : sum local = 0.00113246, global = 0.000153473, cumulative = 0.0141053
smoothSolver:  Solving for omega, Initial residual = 0.000692821, Final residual = 6.6625e-05, No Iterations 4
smoothSolver:  Solving for k, Initial residual = 0.00773951, Final residual = 0.000540294, No Iterations 6
ExecutionTime = 1.21 s  ClockTime = 1 s

scalarTransport execute: age
smoothSolver:  Solving for age, Initial residual = 0.00751622, Final residual = 0.000685942, No Iterations 15

Time = 91

smoothSolver:  Solving for Ux, Initial residual = 0.00727589, Final residual = 0.000497785, No Iterations 6
smoothSolver:  Solving for Uy, Initial residual = 0.00452334, Final residual = 0.000295959, No Iterations 6
GAMG:  Solving for p, Initial residual = 0.00695413, Final residual = 0.000504937, No Iterations 2
time step continuity errors : sum local = 0.00109665, global = 0.000153604, cumulative = 0.0142589
smoothSolver:  Solving for omega, Initial residual = 0.000690151, Final residual = 6.48108e-05, No Iterations 4
smoothSolver:  Solving for k, Initial residual = 0.00747743, Final residual = 0.000517106, No Iterations 6
ExecutionTime = 1.22 s  ClockTime = 1 s

scalarTransport execute: age
smoothSolver:  Solving for age, Initial residual = 0.00725385, Final residual = 0.000674088, No Iterations 15

Time = 92

smoothSolver:  Solving for Ux, Initial residual = 0.00689217, Final residual = 0.000469171, No Iterations 6
smoothSolver:  Solving for Uy, Initial residual = 0.00445561, Final residual = 0.000290404, No Iterations 6
GAMG:  Solving for p, Initial residual = 0.00681637, Final residual = 0.000492334, No Iterations 2
time step continuity errors : sum local = 0.00106534, global = 0.00015384, cumulative = 0.0144127
smoothSolver:  Solving for omega, Initial residual = 0.000684648, Final residual = 6.28121e-05, No Iterations 4
smoothSolver:  Solving for k, Initial residual = 0.00721979, Final residual = 0.000494191, No Iterations 6
ExecutionTime = 1.22 s  ClockTime = 1 s

scalarTransport execute: age
smoothSolver:  Solving for age, Initial residual = 0.00701629, Final residual = 0.000660134, No Iterations 15

Time = 93

smoothSolver:  Solving for Ux, Initial residual = 0.00651465, Final residual = 0.000441312, No Iterations 6
smoothSolver:  Solving for Uy, Initial residual = 0.00440036, Final residual = 0.000439853, No Iterations 5
GAMG:  Solving for p, Initial residual = 0.006752, Final residual = 0.000477794, No Iterations 2
time step continuity errors : sum local = 0.0010294, global = 0.000152824, cumulative = 0.0145655
smoothSolver:  Solving for omega, Initial residual = 0.000677514, Final residual = 6.05274e-05, No Iterations 4
smoothSolver:  Solving for k, Initial residual = 0.00696264, Final residual = 0.000471574, No Iterations 6
ExecutionTime = 1.23 s  ClockTime = 1 s

scalarTransport execute: age
smoothSolver:  Solving for age, Initial residual = 0.00677544, Final residual = 0.000644908, No Iterations 15

Time = 94

smoothSolver:  Solving for Ux, Initial residual = 0.00612005, Final residual = 0.000411886, No Iterations 6
smoothSolver:  Solving for Uy, Initial residual = 0.00438805, Final residual = 0.000437836, No Iterations 5
GAMG:  Solving for p, Initial residual = 0.00658976, Final residual = 0.000468974, No Iterations 2
time step continuity errors : sum local = 0.00100562, global = 0.00015323, cumulative = 0.0147188
smoothSolver:  Solving for omega, Initial residual = 0.000666495, Final residual = 5.81258e-05, No Iterations 4
smoothSolver:  Solving for k, Initial residual = 0.00670424, Final residual = 0.000449245, No Iterations 6
ExecutionTime = 1.26 s  ClockTime = 1 s

scalarTransport execute: age
smoothSolver:  Solving for age, Initial residual = 0.00650913, Final residual = 0.000628442, No Iterations 15

Time = 95

smoothSolver:  Solving for Ux, Initial residual = 0.00575275, Final residual = 0.000384571, No Iterations 6
smoothSolver:  Solving for Uy, Initial residual = 0.00432366, Final residual = 0.000429196, No Iterations 5
GAMG:  Solving for p, Initial residual = 0.00644389, Final residual = 0.000459992, No Iterations 2
time step continuity errors : sum local = 0.000982283, global = 0.000152277, cumulative = 0.014871
smoothSolver:  Solving for omega, Initial residual = 0.000650913, Final residual = 5.57683e-05, No Iterations 4
smoothSolver:  Solving for k, Initial residual = 0.00644739, Final residual = 0.000427273, No Iterations 6
ExecutionTime = 1.27 s  ClockTime = 1 s

scalarTransport execute: age
smoothSolver:  Solving for age, Initial residual = 0.00626235, Final residual = 0.000613072, No Iterations 15

Time = 96

smoothSolver:  Solving for Ux, Initial residual = 0.00540689, Final residual = 0.000358564, No Iterations 6
[...]

Time = 549

smoothSolver:  Solving for Ux, Initial residual = 5.07506e-07, Final residual = 4.42821e-08, No Iterations 5
smoothSolver:  Solving for Uy, Initial residual = 3.22269e-07, Final residual = 2.66887e-08, No Iterations 5
GAMG:  Solving for p, Initial residual = 1.60068e-06, Final residual = 1.15218e-07, No Iterations 2
time step continuity errors : sum local = 2.32679e-07, global = 2.4395e-08, cumulative = 0.0207883
smoothSolver:  Solving for omega, Initial residual = 6.35444e-08, Final residual = 6.50898e-09, No Iterations 4
smoothSolver:  Solving for k, Initial residual = 2.09418e-07, Final residual = 1.80349e-08, No Iterations 5
ExecutionTime = 7.07 s  ClockTime = 7 s

scalarTransport execute: age
smoothSolver:  Solving for age, Initial residual = 0.000308938, Final residual = 2.87915e-05, No Iterations 15

Time = 550

smoothSolver:  Solving for Ux, Initial residual = 4.96891e-07, Final residual = 4.33554e-08, No Iterations 5
smoothSolver:  Solving for Uy, Initial residual = 3.1555e-07, Final residual = 2.61314e-08, No Iterations 5
GAMG:  Solving for p, Initial residual = 1.56741e-06, Final residual = 1.12824e-07, No Iterations 2
time step continuity errors : sum local = 2.27844e-07, global = 2.38941e-08, cumulative = 0.0207883
smoothSolver:  Solving for omega, Initial residual = 6.22485e-08, Final residual = 6.37731e-09, No Iterations 4
smoothSolver:  Solving for k, Initial residual = 2.05031e-07, Final residual = 1.766e-08, No Iterations 5
ExecutionTime = 7.08 s  ClockTime = 7 s

scalarTransport execute: age
smoothSolver:  Solving for age, Initial residual = 0.000308249, Final residual = 2.87281e-05, No Iterations 15

Time = 551

smoothSolver:  Solving for Ux, Initial residual = 4.86334e-07, Final residual = 4.24504e-08, No Iterations 5
smoothSolver:  Solving for Uy, Initial residual = 3.09044e-07, Final residual = 2.5591e-08, No Iterations 5
GAMG:  Solving for p, Initial residual = 1.53421e-06, Final residual = 1.10467e-07, No Iterations 2
time step continuity errors : sum local = 2.23084e-07, global = 2.34007e-08, cumulative = 0.0207883
smoothSolver:  Solving for omega, Initial residual = 6.0975e-08, Final residual = 6.24809e-09, No Iterations 4
smoothSolver:  Solving for k, Initial residual = 2.00746e-07, Final residual = 1.72939e-08, No Iterations 5
ExecutionTime = 7.09 s  ClockTime = 7 s

scalarTransport execute: age
smoothSolver:  Solving for age, Initial residual = 0.000307563, Final residual = 2.86649e-05, No Iterations 15

Time = 552

smoothSolver:  Solving for Ux, Initial residual = 4.76153e-07, Final residual = 4.15648e-08, No Iterations 5
smoothSolver:  Solving for Uy, Initial residual = 3.02696e-07, Final residual = 2.50615e-08, No Iterations 5
GAMG:  Solving for p, Initial residual = 1.50164e-06, Final residual = 1.08136e-07, No Iterations 2
time step continuity errors : sum local = 2.18376e-07, global = 2.29131e-08, cumulative = 0.0207883
smoothSolver:  Solving for omega, Initial residual = 5.97253e-08, Final residual = 6.12129e-09, No Iterations 4
smoothSolver:  Solving for k, Initial residual = 1.96565e-07, Final residual = 1.69364e-08, No Iterations 5
ExecutionTime = 7.1 s  ClockTime = 7 s

scalarTransport execute: age
smoothSolver:  Solving for age, Initial residual = 0.00030688, Final residual = 2.8602e-05, No Iterations 15

Time = 553

smoothSolver:  Solving for Ux, Initial residual = 4.66243e-07, Final residual = 4.06984e-08, No Iterations 5
smoothSolver:  Solving for Uy, Initial residual = 2.96462e-07, Final residual = 2.45429e-08, No Iterations 5
GAMG:  Solving for p, Initial residual = 1.47011e-06, Final residual = 1.0586e-07, No Iterations 2
time step continuity errors : sum local = 2.1378e-07, global = 2.24377e-08, cumulative = 0.0207884
smoothSolver:  Solving for omega, Initial residual = 5.85012e-08, Final residual = 9.93189e-09, No Iterations 3
smoothSolver:  Solving for k, Initial residual = 1.92481e-07, Final residual = 1.65733e-08, No Iterations 5
ExecutionTime = 7.12 s  ClockTime = 7 s

scalarTransport execute: age
smoothSolver:  Solving for age, Initial residual = 0.0003062, Final residual = 2.85394e-05, No Iterations 15

Time = 554

smoothSolver:  Solving for Ux, Initial residual = 4.56372e-07, Final residual = 3.98269e-08, No Iterations 5
smoothSolver:  Solving for Uy, Initial residual = 2.90343e-07, Final residual = 2.40277e-08, No Iterations 5
GAMG:  Solving for p, Initial residual = 1.44042e-06, Final residual = 1.03623e-07, No Iterations 2
time step continuity errors : sum local = 2.09263e-07, global = 2.19779e-08, cumulative = 0.0207884
smoothSolver:  Solving for omega, Initial residual = 5.81756e-08, Final residual = 9.89651e-09, No Iterations 3
smoothSolver:  Solving for k, Initial residual = 1.88452e-07, Final residual = 1.62132e-08, No Iterations 5
ExecutionTime = 7.13 s  ClockTime = 7 s

scalarTransport execute: age
smoothSolver:  Solving for age, Initial residual = 0.000305522, Final residual = 2.84771e-05, No Iterations 15

Time = 555

smoothSolver:  Solving for Ux, Initial residual = 4.46691e-07, Final residual = 3.89732e-08, No Iterations 5
smoothSolver:  Solving for Uy, Initial residual = 2.84325e-07, Final residual = 2.35269e-08, No Iterations 5
GAMG:  Solving for p, Initial residual = 1.4108e-06, Final residual = 1.01424e-07, No Iterations 2
time step continuity errors : sum local = 2.04821e-07, global = 2.15217e-08, cumulative = 0.0207884
smoothSolver:  Solving for omega, Initial residual = 5.76392e-08, Final residual = 9.82625e-09, No Iterations 3
smoothSolver:  Solving for k, Initial residual = 1.84491e-07, Final residual = 1.58629e-08, No Iterations 5
ExecutionTime = 7.14 s  ClockTime = 7 s

scalarTransport execute: age
smoothSolver:  Solving for age, Initial residual = 0.000304847, Final residual = 2.84149e-05, No Iterations 15

Time = 556

smoothSolver:  Solving for Ux, Initial residual = 4.3722e-07, Final residual = 3.8138e-08, No Iterations 5
smoothSolver:  Solving for Uy, Initial residual = 2.7839e-07, Final residual = 2.30331e-08, No Iterations 5
GAMG:  Solving for p, Initial residual = 1.38176e-06, Final residual = 9.9238e-08, No Iterations 2
time step continuity errors : sum local = 2.00408e-07, global = 2.10635e-08, cumulative = 0.0207884
smoothSolver:  Solving for omega, Initial residual = 5.69631e-08, Final residual = 9.73263e-09, No Iterations 3
smoothSolver:  Solving for k, Initial residual = 1.80601e-07, Final residual = 1.55203e-08, No Iterations 5
ExecutionTime = 7.15 s  ClockTime = 7 s

scalarTransport execute: age
smoothSolver:  Solving for age, Initial residual = 0.000304174, Final residual = 2.8353e-05, No Iterations 15

Time = 557

smoothSolver:  Solving for Ux, Initial residual = 4.27956e-07, Final residual = 3.73227e-08, No Iterations 5
smoothSolver:  Solving for Uy, Initial residual = 2.72541e-07, Final residual = 2.25469e-08, No Iterations 5
GAMG:  Solving for p, Initial residual = 1.35311e-06, Final residual = 9.70896e-08, No Iterations 2
time step continuity errors : sum local = 1.96069e-07, global = 2.06107e-08, cumulative = 0.0207884
smoothSolver:  Solving for omega, Initial residual = 5.6197e-08, Final residual = 9.62233e-09, No Iterations 3
smoothSolver:  Solving for k, Initial residual = 1.76772e-07, Final residual = 1.51847e-08, No Iterations 5
ExecutionTime = 7.17 s  ClockTime = 7 s

scalarTransport execute: age
smoothSolver:  Solving for age, Initial residual = 0.000303504, Final residual = 2.82913e-05, No Iterations 15

Time = 558

smoothSolver:  Solving for Ux, Initial residual = 4.18899e-07, Final residual = 3.65271e-08, No Iterations 5
smoothSolver:  Solving for Uy, Initial residual = 2.66788e-07, Final residual = 2.20691e-08, No Iterations 5
GAMG:  Solving for p, Initial residual = 1.32496e-06, Final residual = 9.50005e-08, No Iterations 2
time step continuity errors : sum local = 1.9185e-07, global = 2.01693e-08, cumulative = 0.0207885
smoothSolver:  Solving for omega, Initial residual = 5.53667e-08, Final residual = 9.49976e-09, No Iterations 3
smoothSolver:  Solving for k, Initial residual = 1.73e-07, Final residual = 1.48555e-08, No Iterations 5
ExecutionTime = 7.18 s  ClockTime = 7 s

scalarTransport execute: age
smoothSolver:  Solving for age, Initial residual = 0.000302837, Final residual = 2.82298e-05, No Iterations 15

Time = 559

smoothSolver:  Solving for Ux, Initial residual = 4.1004e-07, Final residual = 3.57503e-08, No Iterations 5
smoothSolver:  Solving for Uy, Initial residual = 2.61139e-07, Final residual = 2.16006e-08, No Iterations 5
GAMG:  Solving for p, Initial residual = 1.29735e-06, Final residual = 9.29717e-08, No Iterations 2
time step continuity errors : sum local = 1.87753e-07, global = 1.974e-08, cumulative = 0.0207885
smoothSolver:  Solving for omega, Initial residual = 5.44924e-08, Final residual = 9.36813e-09, No Iterations 3
smoothSolver:  Solving for k, Initial residual = 1.69285e-07, Final residual = 1.45327e-08, No Iterations 5
ExecutionTime = 7.19 s  ClockTime = 7 s

scalarTransport execute: age
smoothSolver:  Solving for age, Initial residual = 0.000302173, Final residual = 2.81685e-05, No Iterations 15

Time = 560

smoothSolver:  Solving for Ux, Initial residual = 4.01374e-07, Final residual = 3.49913e-08, No Iterations 5
smoothSolver:  Solving for Uy, Initial residual = 2.55593e-07, Final residual = 2.11413e-08, No Iterations 5
GAMG:  Solving for p, Initial residual = 1.27028e-06, Final residual = 9.09974e-08, No Iterations 2
time step continuity errors : sum local = 1.83766e-07, global = 1.93229e-08, cumulative = 0.0207885
smoothSolver:  Solving for omega, Initial residual = 5.3589e-08, Final residual = 9.22987e-09, No Iterations 3
smoothSolver:  Solving for k, Initial residual = 1.6563e-07, Final residual = 1.42162e-08, No Iterations 5
ExecutionTime = 7.2 s  ClockTime = 7 s

scalarTransport execute: age
smoothSolver:  Solving for age, Initial residual = 0.000301511, Final residual = 2.81073e-05, No Iterations 15

Time = 561

smoothSolver:  Solving for Ux, Initial residual = 3.92895e-07, Final residual = 3.42493e-08, No Iterations 5
smoothSolver:  Solving for Uy, Initial residual = 2.50152e-07, Final residual = 2.06909e-08, No Iterations 5
GAMG:  Solving for p, Initial residual = 1.24375e-06, Final residual = 8.90717e-08, No Iterations 2
time step continuity errors : sum local = 1.79877e-07, global = 1.89176e-08, cumulative = 0.0207885
smoothSolver:  Solving for omega, Initial residual = 5.26678e-08, Final residual = 9.08676e-09, No Iterations 3
smoothSolver:  Solving for k, Initial residual = 1.6204e-07, Final residual = 1.39064e-08, No Iterations 5
ExecutionTime = 7.22 s  ClockTime = 7 s

scalarTransport execute: age
smoothSolver:  Solving for age, Initial residual = 0.00030085, Final residual = 2.80463e-05, No Iterations 15

Time = 562

smoothSolver:  Solving for Ux, Initial residual = 3.84599e-07, Final residual = 3.35237e-08, No Iterations 5
smoothSolver:  Solving for Uy, Initial residual = 2.4482e-07, Final residual = 2.02494e-08, No Iterations 5
GAMG:  Solving for p, Initial residual = 1.21776e-06, Final residual = 8.71912e-08, No Iterations 2
time step continuity errors : sum local = 1.76079e-07, global = 1.8524e-08, cumulative = 0.0207885
smoothSolver:  Solving for omega, Initial residual = 5.17369e-08, Final residual = 8.94017e-09, No Iterations 3
smoothSolver:  Solving for k, Initial residual = 1.58517e-07, Final residual = 1.36032e-08, No Iterations 5
ExecutionTime = 7.23 s  ClockTime = 7 s

scalarTransport execute: age
smoothSolver:  Solving for age, Initial residual = 0.000300192, Final residual = 2.79854e-05, No Iterations 15

Time = 563

smoothSolver:  Solving for Ux, Initial residual = 3.76483e-07, Final residual = 3.28144e-08, No Iterations 5
smoothSolver:  Solving for Uy, Initial residual = 2.39598e-07, Final residual = 1.98171e-08, No Iterations 5
GAMG:  Solving for p, Initial residual = 1.1923e-06, Final residual = 8.53535e-08, No Iterations 2
time step continuity errors : sum local = 1.72368e-07, global = 1.81413e-08, cumulative = 0.0207886
smoothSolver:  Solving for omega, Initial residual = 5.08022e-08, Final residual = 8.7912e-09, No Iterations 3
smoothSolver:  Solving for k, Initial residual = 1.55067e-07, Final residual = 1.3307e-08, No Iterations 5
ExecutionTime = 7.24 s  ClockTime = 7 s

scalarTransport execute: age
smoothSolver:  Solving for age, Initial residual = 0.000299538, Final residual = 2.79249e-05, No Iterations 15

Time = 564

smoothSolver:  Solving for Ux, Initial residual = 3.68543e-07, Final residual = 3.2121e-08, No Iterations 5
smoothSolver:  Solving for Uy, Initial residual = 2.3449e-07, Final residual = 1.93939e-08, No Iterations 5
GAMG:  Solving for p, Initial residual = 1.16738e-06, Final residual = 8.35569e-08, No Iterations 2
time step continuity errors : sum local = 1.6874e-07, global = 1.77688e-08, cumulative = 0.0207886
smoothSolver:  Solving for omega, Initial residual = 4.98679e-08, Final residual = 8.6407e-09, No Iterations 3
smoothSolver:  Solving for k, Initial residual = 1.51692e-07, Final residual = 1.30178e-08, No Iterations 5
ExecutionTime = 7.25 s  ClockTime = 7 s

scalarTransport execute: age
smoothSolver:  Solving for age, Initial residual = 0.000298888, Final residual = 2.78646e-05, No Iterations 15

Time = 565

smoothSolver:  Solving for Ux, Initial residual = 3.60779e-07, Final residual = 3.14432e-08, No Iterations 5
smoothSolver:  Solving for Uy, Initial residual = 2.29498e-07, Final residual = 1.898e-08, No Iterations 5
GAMG:  Solving for p, Initial residual = 1.14299e-06, Final residual = 8.17999e-08, No Iterations 2
time step continuity errors : sum local = 1.65192e-07, global = 1.74054e-08, cumulative = 0.0207886
smoothSolver:  Solving for omega, Initial residual = 4.89368e-08, Final residual = 8.48933e-09, No Iterations 3
smoothSolver:  Solving for k, Initial residual = 1.48393e-07, Final residual = 1.27357e-08, No Iterations 5
ExecutionTime = 7.27 s  ClockTime = 7 s

scalarTransport execute: age
smoothSolver:  Solving for age, Initial residual = 0.00029824, Final residual = 2.78047e-05, No Iterations 15

Time = 566

smoothSolver:  Solving for Ux, Initial residual = 3.53186e-07, Final residual = 3.07804e-08, No Iterations 5
smoothSolver:  Solving for Uy, Initial residual = 2.24621e-07, Final residual = 1.85751e-08, No Iterations 5
GAMG:  Solving for p, Initial residual = 1.11911e-06, Final residual = 8.00816e-08, No Iterations 2
time step continuity errors : sum local = 1.61722e-07, global = 1.70502e-08, cumulative = 0.0207886
smoothSolver:  Solving for omega, Initial residual = 4.80114e-08, Final residual = 8.33763e-09, No Iterations 3
smoothSolver:  Solving for k, Initial residual = 1.45171e-07, Final residual = 1.24606e-08, No Iterations 5
ExecutionTime = 7.28 s  ClockTime = 7 s

scalarTransport execute: age
smoothSolver:  Solving for age, Initial residual = 0.000297595, Final residual = 2.7745e-05, No Iterations 15

Time = 567

smoothSolver:  Solving for Ux, Initial residual = 3.45761e-07, Final residual = 3.01323e-08, No Iterations 5
smoothSolver:  Solving for Uy, Initial residual = 2.19862e-07, Final residual = 1.81794e-08, No Iterations 5
GAMG:  Solving for p, Initial residual = 1.09573e-06, Final residual = 7.8401e-08, No Iterations 2
time step continuity errors : sum local = 1.58328e-07, global = 1.67025e-08, cumulative = 0.0207886
smoothSolver:  Solving for omega, Initial residual = 4.70932e-08, Final residual = 8.18607e-09, No Iterations 3
smoothSolver:  Solving for k, Initial residual = 1.42027e-07, Final residual = 1.21925e-08, No Iterations 5
ExecutionTime = 7.29 s  ClockTime = 7 s

scalarTransport execute: age
smoothSolver:  Solving for age, Initial residual = 0.000296951, Final residual = 2.76856e-05, No Iterations 15

Time = 568

smoothSolver:  Solving for Ux, Initial residual = 3.38499e-07, Final residual = 2.94983e-08, No Iterations 5
smoothSolver:  Solving for Uy, Initial residual = 2.15217e-07, Final residual = 1.77926e-08, No Iterations 5
GAMG:  Solving for p, Initial residual = 1.07286e-06, Final residual = 7.67571e-08, No Iterations 2
time step continuity errors : sum local = 1.55008e-07, global = 1.63617e-08, cumulative = 0.0207886
smoothSolver:  Solving for omega, Initial residual = 4.61834e-08, Final residual = 8.03504e-09, No Iterations 3
smoothSolver:  Solving for k, Initial residual = 1.3896e-07, Final residual = 1.19314e-08, No Iterations 5
ExecutionTime = 7.31 s  ClockTime = 7 s

scalarTransport execute: age
smoothSolver:  Solving for age, Initial residual = 0.00029631, Final residual = 2.76265e-05, No Iterations 15

Time = 569

smoothSolver:  Solving for Ux, Initial residual = 3.31394e-07, Final residual = 2.88778e-08, No Iterations 5
smoothSolver:  Solving for Uy, Initial residual = 2.10676e-07, Final residual = 1.74146e-08, No Iterations 5
GAMG:  Solving for p, Initial residual = 1.05048e-06, Final residual = 7.51487e-08, No Iterations 2
time step continuity errors : sum local = 1.5176e-07, global = 1.60277e-08, cumulative = 0.0207887
smoothSolver:  Solving for omega, Initial residual = 4.52831e-08, Final residual = 7.88486e-09, No Iterations 3
smoothSolver:  Solving for k, Initial residual = 1.35969e-07, Final residual = 1.16771e-08, No Iterations 5
ExecutionTime = 7.32 s  ClockTime = 7 s

scalarTransport execute: age
smoothSolver:  Solving for age, Initial residual = 0.000295671, Final residual = 2.75676e-05, No Iterations 15

Time = 570

smoothSolver:  Solving for Ux, Initial residual = 3.2444e-07, Final residual = 2.82705e-08, No Iterations 5
smoothSolver:  Solving for Uy, Initial residual = 2.06237e-07, Final residual = 1.70452e-08, No Iterations 5
GAMG:  Solving for p, Initial residual = 1.02857e-06, Final residual = 7.35748e-08, No Iterations 2
time step continuity errors : sum local = 1.48582e-07, global = 1.57e-08, cumulative = 0.0207887
smoothSolver:  Solving for omega, Initial residual = 4.43933e-08, Final residual = 7.73579e-09, No Iterations 3
smoothSolver:  Solving for k, Initial residual = 1.33054e-07, Final residual = 1.14296e-08, No Iterations 5
ExecutionTime = 7.33 s  ClockTime = 7 s

scalarTransport execute: age
smoothSolver:  Solving for age, Initial residual = 0.000295036, Final residual = 2.75091e-05, No Iterations 15

Time = 571

smoothSolver:  Solving for Ux, Initial residual = 3.17631e-07, Final residual = 2.76759e-08, No Iterations 5
smoothSolver:  Solving for Uy, Initial residual = 2.01895e-07, Final residual = 1.66844e-08, No Iterations 5
GAMG:  Solving for p, Initial residual = 1.00713e-06, Final residual = 7.20343e-08, No Iterations 2
time step continuity errors : sum local = 1.45471e-07, global = 1.53788e-08, cumulative = 0.0207887
smoothSolver:  Solving for omega, Initial residual = 4.35149e-08, Final residual = 7.58809e-09, No Iterations 3
smoothSolver:  Solving for k, Initial residual = 1.30212e-07, Final residual = 1.11886e-08, No Iterations 5
ExecutionTime = 7.34 s  ClockTime = 7 s

scalarTransport execute: age
smoothSolver:  Solving for age, Initial residual = 0.000294403, Final residual = 2.74507e-05, No Iterations 15

Time = 572

smoothSolver:  Solving for Ux, Initial residual = 3.10965e-07, Final residual = 2.70938e-08, No Iterations 5
smoothSolver:  Solving for Uy, Initial residual = 1.97648e-07, Final residual = 1.6332e-08, No Iterations 5
GAMG:  Solving for p, Initial residual = 9.86137e-07, Final residual = 7.05263e-08, No Iterations 2
time step continuity errors : sum local = 1.42426e-07, global = 1.50638e-08, cumulative = 0.0207887
smoothSolver:  Solving for omega, Initial residual = 4.26485e-08, Final residual = 7.44191e-09, No Iterations 3
smoothSolver:  Solving for k, Initial residual = 1.27443e-07, Final residual = 1.09539e-08, No Iterations 5
ExecutionTime = 7.36 s  ClockTime = 7 s


SIMPLE solution converged in 572 iterations

scalarTransport execute: age
smoothSolver:  Solving for age, Initial residual = 0.000293773, Final residual = 2.73927e-05, No Iterations 15

End

