/*---------------------------------------------------------------------------*\
| =========                 |                                                 |
| \\      /  F ield         | OpenFOAM: The Open Source CFD Toolbox           |
|  \\    /   O peration     | Version:  v2012                                 |
|   \\  /    A nd           | Website:  www.openfoam.com                      |
|    \\/     M anipulation  |                                                 |
\*---------------------------------------------------------------------------*/
Build  : _7bdb509494-20201222 OPENFOAM=2012
Arch   : "LSB;label=32;scalar=64"
Exec   : simpleFoam
Date   : Feb 23 2023
Time   : 10:28:46
Host   : johnsDesktop
PID    : 32509
I/O    : uncollated
Case   : /home/john/of_runs/cases/0_86_623_8
nProcs : 1
trapFpe: Floating point exception trapping enabled (FOAM_SIGFPE).
fileModificationChecking : Monitoring run-time modified files using timeStampMaster (fileModificationSkew 5, maxFileModificationPolls 20)
allowSystemOperations : Allowing user-supplied system call operations

// * * * * * * * * * * * * * * * * * * * * * * * * * * * * * * * * * * * * * //
Create time

Create mesh for time = 0


SIMPLE: convergence criteria
    field p	 tolerance 1e-06
    field U	 tolerance 1e-06
    field "(k|epsilon|omega|f|v2|age)"	 tolerance 1e-05

Reading field p

Reading field U

Reading/calculating face flux field phi

Selecting incompressible transport model Newtonian
Selecting turbulence model type RAS
Selecting RAS turbulence model kOmegaSST
Selecting patchDistMethod meshWave
RAS
{
    RASModel        kOmegaSST;
    turbulence      on;
    printCoeffs     on;
    alphaK1         0.85;
    alphaK2         1;
    alphaOmega1     0.5;
    alphaOmega2     0.856;
    gamma1          0.555556;
    gamma2          0.44;
    beta1           0.075;
    beta2           0.0828;
    betaStar        0.09;
    a1              0.31;
    b1              1;
    c1              10;
    F3              false;
    decayControl    false;
    kInf            0;
    omegaInf        0;
}

No MRF models present

No finite volume options present

Starting time loop

Selecting finite volume options type scalarSemiImplicitSource
    Source: unitySource
    - selecting all cells
    - selected 6018 cell(s) with volume 0.03157
Time = 1

smoothSolver:  Solving for Ux, Initial residual = 0, Final residual = 0, No Iterations 0
smoothSolver:  Solving for Uy, Initial residual = 1, Final residual = 0.0355129, No Iterations 2
GAMG:  Solving for p, Initial residual = 1, Final residual = 0.088416, No Iterations 9
time step continuity errors : sum local = 0.00560127, global = -0.00020877, cumulative = -0.00020877
smoothSolver:  Solving for omega, Initial residual = 0.129001, Final residual = 0.00645042, No Iterations 3
smoothSolver:  Solving for k, Initial residual = 1, Final residual = 0.0696131, No Iterations 3
ExecutionTime = 0.05 s  ClockTime = 0 s

scalarTransport execute: age
smoothSolver:  Solving for age, Initial residual = 1, Final residual = 0.094896, No Iterations 6

Time = 2

smoothSolver:  Solving for Ux, Initial residual = 0.431099, Final residual = 0.0366587, No Iterations 5
smoothSolver:  Solving for Uy, Initial residual = 0.242117, Final residual = 0.016494, No Iterations 5
GAMG:  Solving for p, Initial residual = 0.0745874, Final residual = 0.00720158, No Iterations 3
time step continuity errors : sum local = 0.0503246, global = 0.00359084, cumulative = 0.00338207
smoothSolver:  Solving for omega, Initial residual = 0.069268, Final residual = 0.00512577, No Iterations 3
smoothSolver:  Solving for k, Initial residual = 0.504531, Final residual = 0.0328853, No Iterations 4
ExecutionTime = 0.06 s  ClockTime = 0 s

scalarTransport execute: age
smoothSolver:  Solving for age, Initial residual = 0.515385, Final residual = 0.0509357, No Iterations 6

Time = 3

smoothSolver:  Solving for Ux, Initial residual = 0.220994, Final residual = 0.0208994, No Iterations 4
smoothSolver:  Solving for Uy, Initial residual = 0.110797, Final residual = 0.00937536, No Iterations 4
GAMG:  Solving for p, Initial residual = 0.0655936, Final residual = 0.00540027, No Iterations 3
time step continuity errors : sum local = 0.0304443, global = 0.00430369, cumulative = 0.00768576
smoothSolver:  Solving for omega, Initial residual = 0.0245722, Final residual = 0.00169041, No Iterations 4
smoothSolver:  Solving for k, Initial residual = 0.325164, Final residual = 0.0277047, No Iterations 4
ExecutionTime = 0.07 s  ClockTime = 0 s

scalarTransport execute: age
smoothSolver:  Solving for age, Initial residual = 0.313546, Final residual = 0.0291944, No Iterations 7

Time = 4

smoothSolver:  Solving for Ux, Initial residual = 0.146129, Final residual = 0.0111188, No Iterations 4
smoothSolver:  Solving for Uy, Initial residual = 0.0833408, Final residual = 0.006701, No Iterations 4
GAMG:  Solving for p, Initial residual = 0.0675545, Final residual = 0.00560395, No Iterations 2
time step continuity errors : sum local = 0.0259133, global = 0.00371452, cumulative = 0.0114003
smoothSolver:  Solving for omega, Initial residual = 0.0173877, Final residual = 0.00112819, No Iterations 4
smoothSolver:  Solving for k, Initial residual = 0.243728, Final residual = 0.0236235, No Iterations 4
ExecutionTime = 0.08 s  ClockTime = 0 s

scalarTransport execute: age
smoothSolver:  Solving for age, Initial residual = 0.212072, Final residual = 0.0199798, No Iterations 7

Time = 5

smoothSolver:  Solving for Ux, Initial residual = 0.124562, Final residual = 0.00972833, No Iterations 4
smoothSolver:  Solving for Uy, Initial residual = 0.0759695, Final residual = 0.00695914, No Iterations 4
GAMG:  Solving for p, Initial residual = 0.0653782, Final residual = 0.00310708, No Iterations 3
time step continuity errors : sum local = 0.014582, global = 0.000966787, cumulative = 0.0123671
smoothSolver:  Solving for omega, Initial residual = 0.0116895, Final residual = 0.000762928, No Iterations 4
smoothSolver:  Solving for k, Initial residual = 0.186054, Final residual = 0.0115358, No Iterations 5
ExecutionTime = 0.09 s  ClockTime = 0 s

scalarTransport execute: age
smoothSolver:  Solving for age, Initial residual = 0.157495, Final residual = 0.0146521, No Iterations 8

Time = 6

smoothSolver:  Solving for Ux, Initial residual = 0.114498, Final residual = 0.0099627, No Iterations 4
smoothSolver:  Solving for Uy, Initial residual = 0.0700187, Final residual = 0.00450628, No Iterations 5
GAMG:  Solving for p, Initial residual = 0.0565756, Final residual = 0.00257078, No Iterations 3
time step continuity errors : sum local = 0.0122431, global = 0.000156662, cumulative = 0.0125237
smoothSolver:  Solving for omega, Initial residual = 0.00891888, Final residual = 0.000545478, No Iterations 4
smoothSolver:  Solving for k, Initial residual = 0.146608, Final residual = 0.00946502, No Iterations 5
ExecutionTime = 0.11 s  ClockTime = 0 s

scalarTransport execute: age
smoothSolver:  Solving for age, Initial residual = 0.122538, Final residual = 0.0104933, No Iterations 9

Time = 7

smoothSolver:  Solving for Ux, Initial residual = 0.104573, Final residual = 0.00944081, No Iterations 4
smoothSolver:  Solving for Uy, Initial residual = 0.0677904, Final residual = 0.0045471, No Iterations 5
GAMG:  Solving for p, Initial residual = 0.0521527, Final residual = 0.0024964, No Iterations 3
time step continuity errors : sum local = 0.012524, global = -0.000513021, cumulative = 0.0120107
smoothSolver:  Solving for omega, Initial residual = 0.00751226, Final residual = 0.000745757, No Iterations 3
smoothSolver:  Solving for k, Initial residual = 0.120497, Final residual = 0.00783425, No Iterations 5
ExecutionTime = 0.12 s  ClockTime = 0 s

scalarTransport execute: age
smoothSolver:  Solving for age, Initial residual = 0.10655, Final residual = 0.00958754, No Iterations 9

Time = 8

smoothSolver:  Solving for Ux, Initial residual = 0.0975025, Final residual = 0.00886586, No Iterations 4
smoothSolver:  Solving for Uy, Initial residual = 0.0671006, Final residual = 0.00452162, No Iterations 5
GAMG:  Solving for p, Initial residual = 0.0542124, Final residual = 0.00215853, No Iterations 3
time step continuity errors : sum local = 0.0116724, global = -0.000587371, cumulative = 0.0114233
smoothSolver:  Solving for omega, Initial residual = 0.0066322, Final residual = 0.000619473, No Iterations 3
smoothSolver:  Solving for k, Initial residual = 0.101871, Final residual = 0.0064783, No Iterations 5
ExecutionTime = 0.13 s  ClockTime = 0 s

scalarTransport execute: age
smoothSolver:  Solving for age, Initial residual = 0.0980247, Final residual = 0.00901153, No Iterations 9

Time = 9

smoothSolver:  Solving for Ux, Initial residual = 0.0913232, Final residual = 0.00821504, No Iterations 4
smoothSolver:  Solving for Uy, Initial residual = 0.0672471, Final residual = 0.004471, No Iterations 5
GAMG:  Solving for p, Initial residual = 0.0564848, Final residual = 0.00246569, No Iterations 3
time step continuity errors : sum local = 0.0139665, global = -0.000780713, cumulative = 0.0106426
smoothSolver:  Solving for omega, Initial residual = 0.00615927, Final residual = 0.000533973, No Iterations 3
smoothSolver:  Solving for k, Initial residual = 0.0889507, Final residual = 0.00889456, No Iterations 4
ExecutionTime = 0.14 s  ClockTime = 0 s

scalarTransport execute: age
smoothSolver:  Solving for age, Initial residual = 0.0945565, Final residual = 0.00863694, No Iterations 9

Time = 10

smoothSolver:  Solving for Ux, Initial residual = 0.087676, Final residual = 0.00776935, No Iterations 4
smoothSolver:  Solving for Uy, Initial residual = 0.0661998, Final residual = 0.00436425, No Iterations 5
GAMG:  Solving for p, Initial residual = 0.0577006, Final residual = 0.00286742, No Iterations 3
time step continuity errors : sum local = 0.0163672, global = -0.00063252, cumulative = 0.0100101
smoothSolver:  Solving for omega, Initial residual = 0.00618803, Final residual = 0.000488975, No Iterations 3
smoothSolver:  Solving for k, Initial residual = 0.0794467, Final residual = 0.00741418, No Iterations 4
ExecutionTime = 0.15 s  ClockTime = 0 s

scalarTransport execute: age
smoothSolver:  Solving for age, Initial residual = 0.0950648, Final residual = 0.00846092, No Iterations 9

Time = 11

smoothSolver:  Solving for Ux, Initial residual = 0.0851897, Final residual = 0.00735977, No Iterations 4
smoothSolver:  Solving for Uy, Initial residual = 0.0658743, Final residual = 0.00424713, No Iterations 5
GAMG:  Solving for p, Initial residual = 0.0581986, Final residual = 0.00312348, No Iterations 3
time step continuity errors : sum local = 0.0179629, global = -0.000214406, cumulative = 0.0097957
smoothSolver:  Solving for omega, Initial residual = 0.00619123, Final residual = 0.00045359, No Iterations 3
smoothSolver:  Solving for k, Initial residual = 0.0729409, Final residual = 0.00621997, No Iterations 4
ExecutionTime = 0.16 s  ClockTime = 1 s

scalarTransport execute: age
smoothSolver:  Solving for age, Initial residual = 0.0973788, Final residual = 0.008644, No Iterations 9

Time = 12

smoothSolver:  Solving for Ux, Initial residual = 0.0825133, Final residual = 0.00696342, No Iterations 4
smoothSolver:  Solving for Uy, Initial residual = 0.0651811, Final residual = 0.00406481, No Iterations 5
GAMG:  Solving for p, Initial residual = 0.0594247, Final residual = 0.0030307, No Iterations 3
time step continuity errors : sum local = 0.0176879, global = 0.000366483, cumulative = 0.0101622
smoothSolver:  Solving for omega, Initial residual = 0.00620561, Final residual = 0.000423226, No Iterations 3
smoothSolver:  Solving for k, Initial residual = 0.0687181, Final residual = 0.00528706, No Iterations 4
ExecutionTime = 0.18 s  ClockTime = 1 s

scalarTransport execute: age
smoothSolver:  Solving for age, Initial residual = 0.0987156, Final residual = 0.00899703, No Iterations 9

Time = 13

smoothSolver:  Solving for Ux, Initial residual = 0.0786247, Final residual = 0.00655829, No Iterations 4
smoothSolver:  Solving for Uy, Initial residual = 0.0644511, Final residual = 0.00625712, No Iterations 4
GAMG:  Solving for p, Initial residual = 0.059343, Final residual = 0.00281591, No Iterations 3
time step continuity errors : sum local = 0.0168576, global = 0.000956997, cumulative = 0.0111192
smoothSolver:  Solving for omega, Initial residual = 0.00604152, Final residual = 0.000399362, No Iterations 3
smoothSolver:  Solving for k, Initial residual = 0.0666294, Final residual = 0.00457742, No Iterations 4
ExecutionTime = 0.19 s  ClockTime = 1 s

scalarTransport execute: age
smoothSolver:  Solving for age, Initial residual = 0.0997197, Final residual = 0.00943577, No Iterations 9

Time = 14

smoothSolver:  Solving for Ux, Initial residual = 0.0750059, Final residual = 0.00608332, No Iterations 4
smoothSolver:  Solving for Uy, Initial residual = 0.0640797, Final residual = 0.00606063, No Iterations 4
GAMG:  Solving for p, Initial residual = 0.06104, Final residual = 0.00235094, No Iterations 3
time step continuity errors : sum local = 0.0143793, global = 0.00146718, cumulative = 0.0125864
smoothSolver:  Solving for omega, Initial residual = 0.00604402, Final residual = 0.000380508, No Iterations 3
smoothSolver:  Solving for k, Initial residual = 0.0662264, Final residual = 0.00401872, No Iterations 4
ExecutionTime = 0.2 s  ClockTime = 1 s

scalarTransport execute: age
smoothSolver:  Solving for age, Initial residual = 0.102015, Final residual = 0.00994758, No Iterations 9

Time = 15

smoothSolver:  Solving for Ux, Initial residual = 0.0723786, Final residual = 0.00568137, No Iterations 4
smoothSolver:  Solving for Uy, Initial residual = 0.0633392, Final residual = 0.00579465, No Iterations 4
GAMG:  Solving for p, Initial residual = 0.063018, Final residual = 0.00197605, No Iterations 3
time step continuity errors : sum local = 0.0122338, global = 0.00135672, cumulative = 0.0139431
smoothSolver:  Solving for omega, Initial residual = 0.00608035, Final residual = 0.000364817, No Iterations 3
smoothSolver:  Solving for k, Initial residual = 0.0652768, Final residual = 0.00645334, No Iterations 3
ExecutionTime = 0.21 s  ClockTime = 1 s

scalarTransport execute: age
smoothSolver:  Solving for age, Initial residual = 0.105492, Final residual = 0.0104789, No Iterations 9

Time = 16

smoothSolver:  Solving for Ux, Initial residual = 0.0707465, Final residual = 0.00528574, No Iterations 4
smoothSolver:  Solving for Uy, Initial residual = 0.0620268, Final residual = 0.00545734, No Iterations 4
GAMG:  Solving for p, Initial residual = 0.0659826, Final residual = 0.00652121, No Iterations 2
time step continuity errors : sum local = 0.0401443, global = 0.00216155, cumulative = 0.0161046
smoothSolver:  Solving for omega, Initial residual = 0.0059144, Final residual = 0.000335087, No Iterations 3
smoothSolver:  Solving for k, Initial residual = 0.063437, Final residual = 0.00591299, No Iterations 3
ExecutionTime = 0.22 s  ClockTime = 1 s

scalarTransport execute: age
smoothSolver:  Solving for age, Initial residual = 0.106539, Final residual = 0.0106437, No Iterations 9

Time = 17

smoothSolver:  Solving for Ux, Initial residual = 0.0695261, Final residual = 0.0049901, No Iterations 4
smoothSolver:  Solving for Uy, Initial residual = 0.0599998, Final residual = 0.00510645, No Iterations 4
GAMG:  Solving for p, Initial residual = 0.0692057, Final residual = 0.0024863, No Iterations 3
time step continuity errors : sum local = 0.0154824, global = 0.0013886, cumulative = 0.0174932
smoothSolver:  Solving for omega, Initial residual = 0.00602814, Final residual = 0.000317783, No Iterations 3
smoothSolver:  Solving for k, Initial residual = 0.0635793, Final residual = 0.00545059, No Iterations 3
ExecutionTime = 0.23 s  ClockTime = 1 s

scalarTransport execute: age
smoothSolver:  Solving for age, Initial residual = 0.108049, Final residual = 0.00959829, No Iterations 10

Time = 18

smoothSolver:  Solving for Ux, Initial residual = 0.0679369, Final residual = 0.00456568, No Iterations 4
smoothSolver:  Solving for Uy, Initial residual = 0.0577105, Final residual = 0.00453905, No Iterations 4
GAMG:  Solving for p, Initial residual = 0.0695243, Final residual = 0.00692436, No Iterations 2
time step continuity errors : sum local = 0.0418943, global = 0.0018341, cumulative = 0.0193273
smoothSolver:  Solving for omega, Initial residual = 0.00574898, Final residual = 0.000280797, No Iterations 3
smoothSolver:  Solving for k, Initial residual = 0.0611031, Final residual = 0.00491181, No Iterations 3
ExecutionTime = 0.24 s  ClockTime = 1 s

scalarTransport execute: age
smoothSolver:  Solving for age, Initial residual = 0.106647, Final residual = 0.00966562, No Iterations 10

Time = 19

smoothSolver:  Solving for Ux, Initial residual = 0.0655296, Final residual = 0.00426754, No Iterations 4
smoothSolver:  Solving for Uy, Initial residual = 0.0552694, Final residual = 0.00423891, No Iterations 4
GAMG:  Solving for p, Initial residual = 0.0741293, Final residual = 0.00709058, No Iterations 2
time step continuity errors : sum local = 0.0431953, global = 0.0034564, cumulative = 0.0227837
smoothSolver:  Solving for omega, Initial residual = 0.00541789, Final residual = 0.000255914, No Iterations 3
smoothSolver:  Solving for k, Initial residual = 0.0596262, Final residual = 0.00448139, No Iterations 3
ExecutionTime = 0.25 s  ClockTime = 1 s

scalarTransport execute: age
smoothSolver:  Solving for age, Initial residual = 0.10453, Final residual = 0.00958331, No Iterations 10

Time = 20

smoothSolver:  Solving for Ux, Initial residual = 0.0630199, Final residual = 0.0039696, No Iterations 4
smoothSolver:  Solving for Uy, Initial residual = 0.0520752, Final residual = 0.00374577, No Iterations 4
GAMG:  Solving for p, Initial residual = 0.0742115, Final residual = 0.00601333, No Iterations 2
time step continuity errors : sum local = 0.0361598, global = 0.00439107, cumulative = 0.0271748
smoothSolver:  Solving for omega, Initial residual = 0.00516799, Final residual = 0.000235007, No Iterations 3
smoothSolver:  Solving for k, Initial residual = 0.0565742, Final residual = 0.00410201, No Iterations 3
ExecutionTime = 0.26 s  ClockTime = 1 s

scalarTransport execute: age
smoothSolver:  Solving for age, Initial residual = 0.102907, Final residual = 0.00896859, No Iterations 11

Time = 21

smoothSolver:  Solving for Ux, Initial residual = 0.0607585, Final residual = 0.00368298, No Iterations 4
smoothSolver:  Solving for Uy, Initial residual = 0.0490886, Final residual = 0.00328624, No Iterations 4
GAMG:  Solving for p, Initial residual = 0.0742931, Final residual = 0.00582531, No Iterations 2
time step continuity errors : sum local = 0.0339399, global = 0.00390771, cumulative = 0.0310825
smoothSolver:  Solving for omega, Initial residual = 0.00476915, Final residual = 0.000476499, No Iterations 2
smoothSolver:  Solving for k, Initial residual = 0.0527865, Final residual = 0.00380202, No Iterations 3
ExecutionTime = 0.28 s  ClockTime = 1 s

scalarTransport execute: age
smoothSolver:  Solving for age, Initial residual = 0.101523, Final residual = 0.00949912, No Iterations 10

Time = 22

smoothSolver:  Solving for Ux, Initial residual = 0.0577789, Final residual = 0.00335271, No Iterations 4
smoothSolver:  Solving for Uy, Initial residual = 0.0461218, Final residual = 0.00296352, No Iterations 4
GAMG:  Solving for p, Initial residual = 0.0754688, Final residual = 0.00563728, No Iterations 2
time step continuity errors : sum local = 0.0311765, global = 0.00351845, cumulative = 0.034601
smoothSolver:  Solving for omega, Initial residual = 0.00454843, Final residual = 0.00045279, No Iterations 2
smoothSolver:  Solving for k, Initial residual = 0.048974, Final residual = 0.00360134, No Iterations 3
ExecutionTime = 0.29 s  ClockTime = 1 s

scalarTransport execute: age
smoothSolver:  Solving for age, Initial residual = 0.0956468, Final residual = 0.00872949, No Iterations 10

Time = 23

smoothSolver:  Solving for Ux, Initial residual = 0.0539788, Final residual = 0.00304689, No Iterations 4
smoothSolver:  Solving for Uy, Initial residual = 0.04249, Final residual = 0.002723, No Iterations 4
GAMG:  Solving for p, Initial residual = 0.0745202, Final residual = 0.0056395, No Iterations 2
time step continuity errors : sum local = 0.0301549, global = 0.00340488, cumulative = 0.0380058
smoothSolver:  Solving for omega, Initial residual = 0.00436285, Final residual = 0.000428709, No Iterations 2
smoothSolver:  Solving for k, Initial residual = 0.0461284, Final residual = 0.00347425, No Iterations 3
ExecutionTime = 0.3 s  ClockTime = 1 s

scalarTransport execute: age
smoothSolver:  Solving for age, Initial residual = 0.0932766, Final residual = 0.00841753, No Iterations 10

Time = 24

smoothSolver:  Solving for Ux, Initial residual = 0.0498775, Final residual = 0.00278323, No Iterations 4
smoothSolver:  Solving for Uy, Initial residual = 0.0393046, Final residual = 0.00253903, No Iterations 4
GAMG:  Solving for p, Initial residual = 0.0725976, Final residual = 0.00516999, No Iterations 2
time step continuity errors : sum local = 0.0263332, global = 0.00271632, cumulative = 0.0407222
smoothSolver:  Solving for omega, Initial residual = 0.00402793, Final residual = 0.00018755, No Iterations 3
smoothSolver:  Solving for k, Initial residual = 0.0442211, Final residual = 0.00336687, No Iterations 3
ExecutionTime = 0.31 s  ClockTime = 1 s

scalarTransport execute: age
smoothSolver:  Solving for age, Initial residual = 0.0904486, Final residual = 0.00808029, No Iterations 10

Time = 25

smoothSolver:  Solving for Ux, Initial residual = 0.0458742, Final residual = 0.00259735, No Iterations 4
smoothSolver:  Solving for Uy, Initial residual = 0.0371585, Final residual = 0.00241909, No Iterations 4
GAMG:  Solving for p, Initial residual = 0.0711491, Final residual = 0.00526322, No Iterations 2
time step continuity errors : sum local = 0.0255425, global = 0.00188984, cumulative = 0.042612
smoothSolver:  Solving for omega, Initial residual = 0.0035206, Final residual = 0.000175971, No Iterations 3
smoothSolver:  Solving for k, Initial residual = 0.0425939, Final residual = 0.0032654, No Iterations 3
ExecutionTime = 0.32 s  ClockTime = 1 s

scalarTransport execute: age
smoothSolver:  Solving for age, Initial residual = 0.0863504, Final residual = 0.00787143, No Iterations 10

Time = 26

smoothSolver:  Solving for Ux, Initial residual = 0.0417911, Final residual = 0.0024703, No Iterations 4
smoothSolver:  Solving for Uy, Initial residual = 0.0354343, Final residual = 0.00237018, No Iterations 4
GAMG:  Solving for p, Initial residual = 0.0692153, Final residual = 0.00546837, No Iterations 2
time step continuity errors : sum local = 0.0258975, global = 0.000958253, cumulative = 0.0435703
smoothSolver:  Solving for omega, Initial residual = 0.00324891, Final residual = 0.000166448, No Iterations 3
smoothSolver:  Solving for k, Initial residual = 0.0415105, Final residual = 0.00319605, No Iterations 3
ExecutionTime = 0.33 s  ClockTime = 1 s

scalarTransport execute: age
smoothSolver:  Solving for age, Initial residual = 0.0826779, Final residual = 0.00758633, No Iterations 10

Time = 27

smoothSolver:  Solving for Ux, Initial residual = 0.0383859, Final residual = 0.0023739, No Iterations 4
smoothSolver:  Solving for Uy, Initial residual = 0.0345543, Final residual = 0.00240594, No Iterations 4
GAMG:  Solving for p, Initial residual = 0.0650651, Final residual = 0.00532815, No Iterations 2
time step continuity errors : sum local = 0.0250841, global = -4.05058e-05, cumulative = 0.0435297
smoothSolver:  Solving for omega, Initial residual = 0.0030806, Final residual = 0.000162056, No Iterations 3
smoothSolver:  Solving for k, Initial residual = 0.0407472, Final residual = 0.0031887, No Iterations 3
ExecutionTime = 0.34 s  ClockTime = 1 s

scalarTransport execute: age
smoothSolver:  Solving for age, Initial residual = 0.0789934, Final residual = 0.00722503, No Iterations 10

Time = 28

smoothSolver:  Solving for Ux, Initial residual = 0.0349754, Final residual = 0.00223536, No Iterations 4
smoothSolver:  Solving for Uy, Initial residual = 0.0341326, Final residual = 0.00245549, No Iterations 4
GAMG:  Solving for p, Initial residual = 0.060443, Final residual = 0.00491528, No Iterations 2
time step continuity errors : sum local = 0.0233014, global = -0.00104344, cumulative = 0.0424863
smoothSolver:  Solving for omega, Initial residual = 0.00295881, Final residual = 0.00016022, No Iterations 3
smoothSolver:  Solving for k, Initial residual = 0.040485, Final residual = 0.00325089, No Iterations 3
ExecutionTime = 0.36 s  ClockTime = 1 s

scalarTransport execute: age
smoothSolver:  Solving for age, Initial residual = 0.0763035, Final residual = 0.00694421, No Iterations 10

Time = 29

smoothSolver:  Solving for Ux, Initial residual = 0.0318181, Final residual = 0.00204057, No Iterations 4
smoothSolver:  Solving for Uy, Initial residual = 0.0336828, Final residual = 0.00251995, No Iterations 4
GAMG:  Solving for p, Initial residual = 0.0580825, Final residual = 0.00447692, No Iterations 2
time step continuity errors : sum local = 0.0214955, global = -0.00185771, cumulative = 0.0406286
smoothSolver:  Solving for omega, Initial residual = 0.00285433, Final residual = 0.000159288, No Iterations 3
smoothSolver:  Solving for k, Initial residual = 0.0410677, Final residual = 0.00329517, No Iterations 3
ExecutionTime = 0.37 s  ClockTime = 1 s

scalarTransport execute: age
smoothSolver:  Solving for age, Initial residual = 0.0742461, Final residual = 0.0066875, No Iterations 10

Time = 30

smoothSolver:  Solving for Ux, Initial residual = 0.0289915, Final residual = 0.00183849, No Iterations 4
smoothSolver:  Solving for Uy, Initial residual = 0.0332388, Final residual = 0.00262324, No Iterations 4
GAMG:  Solving for p, Initial residual = 0.0560367, Final residual = 0.00427446, No Iterations 2
time step continuity errors : sum local = 0.0207972, global = -0.00224319, cumulative = 0.0383854
smoothSolver:  Solving for omega, Initial residual = 0.0027874, Final residual = 0.000156981, No Iterations 3
smoothSolver:  Solving for k, Initial residual = 0.0412372, Final residual = 0.00325385, No Iterations 3
ExecutionTime = 0.38 s  ClockTime = 1 s

scalarTransport execute: age
smoothSolver:  Solving for age, Initial residual = 0.0726815, Final residual = 0.00656592, No Iterations 10

Time = 31

smoothSolver:  Solving for Ux, Initial residual = 0.0264872, Final residual = 0.00165101, No Iterations 4
smoothSolver:  Solving for Uy, Initial residual = 0.0327409, Final residual = 0.00268599, No Iterations 4
GAMG:  Solving for p, Initial residual = 0.0543072, Final residual = 0.00437305, No Iterations 2
time step continuity errors : sum local = 0.0215974, global = -0.00210153, cumulative = 0.0362839
smoothSolver:  Solving for omega, Initial residual = 0.00281679, Final residual = 0.000153296, No Iterations 3
smoothSolver:  Solving for k, Initial residual = 0.0407427, Final residual = 0.00311232, No Iterations 3
ExecutionTime = 0.39 s  ClockTime = 1 s

scalarTransport execute: age
smoothSolver:  Solving for age, Initial residual = 0.0707599, Final residual = 0.00626002, No Iterations 10

Time = 32

smoothSolver:  Solving for Ux, Initial residual = 0.0244544, Final residual = 0.00149191, No Iterations 4
smoothSolver:  Solving for Uy, Initial residual = 0.0315315, Final residual = 0.00265061, No Iterations 4
GAMG:  Solving for p, Initial residual = 0.052881, Final residual = 0.00465685, No Iterations 2
time step continuity errors : sum local = 0.0233753, global = -0.00144923, cumulative = 0.0348346
smoothSolver:  Solving for omega, Initial residual = 0.00283037, Final residual = 0.000147088, No Iterations 3
smoothSolver:  Solving for k, Initial residual = 0.0395788, Final residual = 0.00291791, No Iterations 3
ExecutionTime = 0.4 s  ClockTime = 1 s

scalarTransport execute: age
smoothSolver:  Solving for age, Initial residual = 0.0675927, Final residual = 0.00588663, No Iterations 10

Time = 33

smoothSolver:  Solving for Ux, Initial residual = 0.0230512, Final residual = 0.00136222, No Iterations 4
smoothSolver:  Solving for Uy, Initial residual = 0.0301757, Final residual = 0.00252359, No Iterations 4
GAMG:  Solving for p, Initial residual = 0.0514916, Final residual = 0.00478555, No Iterations 2
time step continuity errors : sum local = 0.0243289, global = -0.000337765, cumulative = 0.0344969
smoothSolver:  Solving for omega, Initial residual = 0.00277178, Final residual = 0.000137593, No Iterations 3
smoothSolver:  Solving for k, Initial residual = 0.0378858, Final residual = 0.00270321, No Iterations 3
ExecutionTime = 0.41 s  ClockTime = 1 s

scalarTransport execute: age
smoothSolver:  Solving for age, Initial residual = 0.0635017, Final residual = 0.00557575, No Iterations 10

Time = 34

smoothSolver:  Solving for Ux, Initial residual = 0.0221831, Final residual = 0.00127157, No Iterations 4
smoothSolver:  Solving for Uy, Initial residual = 0.0285102, Final residual = 0.0023231, No Iterations 4
GAMG:  Solving for p, Initial residual = 0.0497203, Final residual = 0.00455374, No Iterations 2
time step continuity errors : sum local = 0.0233377, global = 0.00109493, cumulative = 0.0355918
smoothSolver:  Solving for omega, Initial residual = 0.00261261, Final residual = 0.000126309, No Iterations 3
smoothSolver:  Solving for k, Initial residual = 0.0359659, Final residual = 0.00252381, No Iterations 3
ExecutionTime = 0.42 s  ClockTime = 1 s

scalarTransport execute: age
smoothSolver:  Solving for age, Initial residual = 0.0596231, Final residual = 0.00541083, No Iterations 10

Time = 35

smoothSolver:  Solving for Ux, Initial residual = 0.0216053, Final residual = 0.00121081, No Iterations 4
smoothSolver:  Solving for Uy, Initial residual = 0.0263672, Final residual = 0.0020839, No Iterations 4
GAMG:  Solving for p, Initial residual = 0.0476165, Final residual = 0.00291784, No Iterations 2
time step continuity errors : sum local = 0.0150064, global = 0.00188533, cumulative = 0.0374771
smoothSolver:  Solving for omega, Initial residual = 0.00241883, Final residual = 0.000114683, No Iterations 3
smoothSolver:  Solving for k, Initial residual = 0.0336546, Final residual = 0.00237973, No Iterations 3
ExecutionTime = 0.43 s  ClockTime = 1 s

scalarTransport execute: age
smoothSolver:  Solving for age, Initial residual = 0.0557943, Final residual = 0.00522886, No Iterations 10

Time = 36

smoothSolver:  Solving for Ux, Initial residual = 0.0216828, Final residual = 0.0012096, No Iterations 4
smoothSolver:  Solving for Uy, Initial residual = 0.0238601, Final residual = 0.0018115, No Iterations 4
GAMG:  Solving for p, Initial residual = 0.0451829, Final residual = 0.00287181, No Iterations 2
time step continuity errors : sum local = 0.0144752, global = 0.00133294, cumulative = 0.0388101
smoothSolver:  Solving for omega, Initial residual = 0.0022923, Final residual = 0.000105691, No Iterations 3
smoothSolver:  Solving for k, Initial residual = 0.0314699, Final residual = 0.00229789, No Iterations 3
ExecutionTime = 0.45 s  ClockTime = 1 s

scalarTransport execute: age
smoothSolver:  Solving for age, Initial residual = 0.0519971, Final residual = 0.00495331, No Iterations 10

Time = 37

smoothSolver:  Solving for Ux, Initial residual = 0.0215579, Final residual = 0.00122829, No Iterations 4
smoothSolver:  Solving for Uy, Initial residual = 0.022651, Final residual = 0.0016203, No Iterations 4
GAMG:  Solving for p, Initial residual = 0.0452275, Final residual = 0.0024209, No Iterations 2
time step continuity errors : sum local = 0.011595, global = 0.00135254, cumulative = 0.0401626
smoothSolver:  Solving for omega, Initial residual = 0.00218006, Final residual = 0.00021654, No Iterations 2
smoothSolver:  Solving for k, Initial residual = 0.0298934, Final residual = 0.00220675, No Iterations 3
ExecutionTime = 0.46 s  ClockTime = 1 s

scalarTransport execute: age
smoothSolver:  Solving for age, Initial residual = 0.0486205, Final residual = 0.00474959, No Iterations 10

Time = 38

smoothSolver:  Solving for Ux, Initial residual = 0.0206408, Final residual = 0.00121119, No Iterations 4
smoothSolver:  Solving for Uy, Initial residual = 0.0206257, Final residual = 0.00146578, No Iterations 4
GAMG:  Solving for p, Initial residual = 0.0446539, Final residual = 0.00237627, No Iterations 2
time step continuity errors : sum local = 0.0113016, global = 0.00147829, cumulative = 0.0416409
smoothSolver:  Solving for omega, Initial residual = 0.00231963, Final residual = 0.00022247, No Iterations 2
smoothSolver:  Solving for k, Initial residual = 0.0292227, Final residual = 0.00215045, No Iterations 3
ExecutionTime = 0.47 s  ClockTime = 1 s

scalarTransport execute: age
smoothSolver:  Solving for age, Initial residual = 0.0455127, Final residual = 0.004525, No Iterations 10

Time = 39

smoothSolver:  Solving for Ux, Initial residual = 0.0200357, Final residual = 0.00118654, No Iterations 4
smoothSolver:  Solving for Uy, Initial residual = 0.0185675, Final residual = 0.00122829, No Iterations 4
GAMG:  Solving for p, Initial residual = 0.0426834, Final residual = 0.00236709, No Iterations 2
time step continuity errors : sum local = 0.0111358, global = 0.0012757, cumulative = 0.0429166
smoothSolver:  Solving for omega, Initial residual = 0.0021064, Final residual = 0.00020911, No Iterations 2
smoothSolver:  Solving for k, Initial residual = 0.028589, Final residual = 0.00208684, No Iterations 3
ExecutionTime = 0.48 s  ClockTime = 1 s

scalarTransport execute: age
smoothSolver:  Solving for age, Initial residual = 0.042599, Final residual = 0.00377577, No Iterations 11

Time = 40

smoothSolver:  Solving for Ux, Initial residual = 0.0193095, Final residual = 0.00116693, No Iterations 4
smoothSolver:  Solving for Uy, Initial residual = 0.0173036, Final residual = 0.00109109, No Iterations 4
GAMG:  Solving for p, Initial residual = 0.0410744, Final residual = 0.00242824, No Iterations 2
time step continuity errors : sum local = 0.011305, global = 0.00106581, cumulative = 0.0439824
smoothSolver:  Solving for omega, Initial residual = 0.00188961, Final residual = 9.15045e-05, No Iterations 3
smoothSolver:  Solving for k, Initial residual = 0.0278001, Final residual = 0.00203581, No Iterations 3
ExecutionTime = 0.49 s  ClockTime = 1 s

scalarTransport execute: age
smoothSolver:  Solving for age, Initial residual = 0.0404873, Final residual = 0.00357471, No Iterations 11

Time = 41

smoothSolver:  Solving for Ux, Initial residual = 0.0184826, Final residual = 0.00113898, No Iterations 4
smoothSolver:  Solving for Uy, Initial residual = 0.0166028, Final residual = 0.00104603, No Iterations 4
GAMG:  Solving for p, Initial residual = 0.0402976, Final residual = 0.00271444, No Iterations 2
time step continuity errors : sum local = 0.0125829, global = 0.000943993, cumulative = 0.0449264
smoothSolver:  Solving for omega, Initial residual = 0.0017119, Final residual = 8.2188e-05, No Iterations 3
smoothSolver:  Solving for k, Initial residual = 0.0267553, Final residual = 0.00201347, No Iterations 3
ExecutionTime = 0.5 s  ClockTime = 1 s

scalarTransport execute: age
smoothSolver:  Solving for age, Initial residual = 0.0386305, Final residual = 0.00343904, No Iterations 11

Time = 42

smoothSolver:  Solving for Ux, Initial residual = 0.017829, Final residual = 0.00109816, No Iterations 4
smoothSolver:  Solving for Uy, Initial residual = 0.0161981, Final residual = 0.00104678, No Iterations 4
GAMG:  Solving for p, Initial residual = 0.0397977, Final residual = 0.00299776, No Iterations 2
time step continuity errors : sum local = 0.0138813, global = 0.000860706, cumulative = 0.0457871
smoothSolver:  Solving for omega, Initial residual = 0.00159665, Final residual = 7.56794e-05, No Iterations 3
smoothSolver:  Solving for k, Initial residual = 0.0259311, Final residual = 0.0020009, No Iterations 3
ExecutionTime = 0.51 s  ClockTime = 1 s

scalarTransport execute: age
smoothSolver:  Solving for age, Initial residual = 0.0379681, Final residual = 0.00331593, No Iterations 11

Time = 43

smoothSolver:  Solving for Ux, Initial residual = 0.0174153, Final residual = 0.00105348, No Iterations 4
smoothSolver:  Solving for Uy, Initial residual = 0.0160932, Final residual = 0.0010827, No Iterations 4
GAMG:  Solving for p, Initial residual = 0.0397761, Final residual = 0.00326782, No Iterations 2
time step continuity errors : sum local = 0.0151296, global = 0.00079581, cumulative = 0.0465829
smoothSolver:  Solving for omega, Initial residual = 0.00156055, Final residual = 7.15335e-05, No Iterations 3
smoothSolver:  Solving for k, Initial residual = 0.0252517, Final residual = 0.00198988, No Iterations 3
ExecutionTime = 0.52 s  ClockTime = 1 s

scalarTransport execute: age
smoothSolver:  Solving for age, Initial residual = 0.0374764, Final residual = 0.00370699, No Iterations 10

Time = 44

smoothSolver:  Solving for Ux, Initial residual = 0.017066, Final residual = 0.00100803, No Iterations 4
smoothSolver:  Solving for Uy, Initial residual = 0.0162744, Final residual = 0.00112031, No Iterations 4
GAMG:  Solving for p, Initial residual = 0.0402469, Final residual = 0.00347486, No Iterations 2
time step continuity errors : sum local = 0.0160893, global = 0.000744525, cumulative = 0.0473275
smoothSolver:  Solving for omega, Initial residual = 0.00156393, Final residual = 6.92806e-05, No Iterations 3
smoothSolver:  Solving for k, Initial residual = 0.024687, Final residual = 0.0019529, No Iterations 3
ExecutionTime = 0.53 s  ClockTime = 1 s

scalarTransport execute: age
smoothSolver:  Solving for age, Initial residual = 0.0372153, Final residual = 0.00359888, No Iterations 10

Time = 45

smoothSolver:  Solving for Ux, Initial residual = 0.0166283, Final residual = 0.000957464, No Iterations 4
smoothSolver:  Solving for Uy, Initial residual = 0.0164352, Final residual = 0.00114982, No Iterations 4
GAMG:  Solving for p, Initial residual = 0.0403186, Final residual = 0.00354748, No Iterations 2
time step continuity errors : sum local = 0.0164427, global = 0.000690116, cumulative = 0.0480176
smoothSolver:  Solving for omega, Initial residual = 0.00157977, Final residual = 0.000157861, No Iterations 2
smoothSolver:  Solving for k, Initial residual = 0.0240364, Final residual = 0.00187995, No Iterations 3
ExecutionTime = 0.55 s  ClockTime = 1 s

scalarTransport execute: age
smoothSolver:  Solving for age, Initial residual = 0.0372077, Final residual = 0.00345908, No Iterations 10

Time = 46

smoothSolver:  Solving for Ux, Initial residual = 0.0161102, Final residual = 0.000900084, No Iterations 4
smoothSolver:  Solving for Uy, Initial residual = 0.016491, Final residual = 0.00116621, No Iterations 4
GAMG:  Solving for p, Initial residual = 0.0401705, Final residual = 0.00347114, No Iterations 2
time step continuity errors : sum local = 0.0160852, global = 0.000620354, cumulative = 0.0486379
smoothSolver:  Solving for omega, Initial residual = 0.00164426, Final residual = 7.2202e-05, No Iterations 3
smoothSolver:  Solving for k, Initial residual = 0.0233435, Final residual = 0.00178609, No Iterations 3
ExecutionTime = 0.56 s  ClockTime = 1 s

scalarTransport execute: age
smoothSolver:  Solving for age, Initial residual = 0.0366349, Final residual = 0.00332708, No Iterations 10

Time = 47

smoothSolver:  Solving for Ux, Initial residual = 0.0155822, Final residual = 0.00154542, No Iterations 3
smoothSolver:  Solving for Uy, Initial residual = 0.0164246, Final residual = 0.00115765, No Iterations 4
GAMG:  Solving for p, Initial residual = 0.0389986, Final residual = 0.00308099, No Iterations 2
time step continuity errors : sum local = 0.0142386, global = 0.000528501, cumulative = 0.0491664
smoothSolver:  Solving for omega, Initial residual = 0.00157861, Final residual = 6.8323e-05, No Iterations 3
smoothSolver:  Solving for k, Initial residual = 0.0226416, Final residual = 0.00167788, No Iterations 3
ExecutionTime = 0.57 s  ClockTime = 1 s

scalarTransport execute: age
smoothSolver:  Solving for age, Initial residual = 0.0355496, Final residual = 0.00320803, No Iterations 10

Time = 48

smoothSolver:  Solving for Ux, Initial residual = 0.0152962, Final residual = 0.00151804, No Iterations 3
smoothSolver:  Solving for Uy, Initial residual = 0.0160708, Final residual = 0.00112657, No Iterations 4
GAMG:  Solving for p, Initial residual = 0.0386027, Final residual = 0.0028896, No Iterations 2
time step continuity errors : sum local = 0.0132838, global = 0.000421521, cumulative = 0.049588
smoothSolver:  Solving for omega, Initial residual = 0.00152936, Final residual = 0.00015178, No Iterations 2
smoothSolver:  Solving for k, Initial residual = 0.0221986, Final residual = 0.00158985, No Iterations 3
ExecutionTime = 0.58 s  ClockTime = 1 s

scalarTransport execute: age
smoothSolver:  Solving for age, Initial residual = 0.0339232, Final residual = 0.00308777, No Iterations 10

Time = 49

smoothSolver:  Solving for Ux, Initial residual = 0.0149953, Final residual = 0.0014841, No Iterations 3
smoothSolver:  Solving for Uy, Initial residual = 0.0155983, Final residual = 0.00108333, No Iterations 4
GAMG:  Solving for p, Initial residual = 0.038248, Final residual = 0.00267098, No Iterations 2
time step continuity errors : sum local = 0.0121803, global = 0.000306157, cumulative = 0.0498941
smoothSolver:  Solving for omega, Initial residual = 0.0015209, Final residual = 6.84213e-05, No Iterations 3
smoothSolver:  Solving for k, Initial residual = 0.0216708, Final residual = 0.00150885, No Iterations 3
ExecutionTime = 0.59 s  ClockTime = 1 s

scalarTransport execute: age
smoothSolver:  Solving for age, Initial residual = 0.0320941, Final residual = 0.00298694, No Iterations 10

Time = 50

smoothSolver:  Solving for Ux, Initial residual = 0.0147254, Final residual = 0.00144928, No Iterations 3
smoothSolver:  Solving for Uy, Initial residual = 0.0151696, Final residual = 0.0010444, No Iterations 4
GAMG:  Solving for p, Initial residual = 0.0378873, Final residual = 0.00245439, No Iterations 2
time step continuity errors : sum local = 0.0110844, global = 0.000182648, cumulative = 0.0500768
smoothSolver:  Solving for omega, Initial residual = 0.00145766, Final residual = 6.65785e-05, No Iterations 3
smoothSolver:  Solving for k, Initial residual = 0.0211207, Final residual = 0.00145158, No Iterations 3
ExecutionTime = 0.6 s  ClockTime = 1 s

scalarTransport execute: age
smoothSolver:  Solving for age, Initial residual = 0.0300965, Final residual = 0.00288851, No Iterations 10

Time = 51

smoothSolver:  Solving for Ux, Initial residual = 0.0144526, Final residual = 0.00141119, No Iterations 3
smoothSolver:  Solving for Uy, Initial residual = 0.0147516, Final residual = 0.00101821, No Iterations 4
GAMG:  Solving for p, Initial residual = 0.0374405, Final residual = 0.00228735, No Iterations 2
time step continuity errors : sum local = 0.0102243, global = 5.10782e-05, cumulative = 0.0501278
smoothSolver:  Solving for omega, Initial residual = 0.00143773, Final residual = 6.64483e-05, No Iterations 3
smoothSolver:  Solving for k, Initial residual = 0.0205166, Final residual = 0.0014176, No Iterations 3
ExecutionTime = 0.61 s  ClockTime = 1 s

scalarTransport execute: age
smoothSolver:  Solving for age, Initial residual = 0.0280417, Final residual = 0.00278509, No Iterations 10

Time = 52

smoothSolver:  Solving for Ux, Initial residual = 0.014204, Final residual = 0.00137005, No Iterations 3
smoothSolver:  Solving for Uy, Initial residual = 0.0144538, Final residual = 0.00100058, No Iterations 4
GAMG:  Solving for p, Initial residual = 0.0367524, Final residual = 0.00220484, No Iterations 2
time step continuity errors : sum local = 0.00976139, global = -2.95035e-05, cumulative = 0.0500983
smoothSolver:  Solving for omega, Initial residual = 0.00144043, Final residual = 6.70344e-05, No Iterations 3
smoothSolver:  Solving for k, Initial residual = 0.0197763, Final residual = 0.00139518, No Iterations 3
ExecutionTime = 0.62 s  ClockTime = 1 s

scalarTransport execute: age
smoothSolver:  Solving for age, Initial residual = 0.0265412, Final residual = 0.00233596, No Iterations 11

Time = 53

smoothSolver:  Solving for Ux, Initial residual = 0.0139609, Final residual = 0.00132703, No Iterations 3
smoothSolver:  Solving for Uy, Initial residual = 0.0142182, Final residual = 0.000993251, No Iterations 4
GAMG:  Solving for p, Initial residual = 0.0358201, Final residual = 0.00208526, No Iterations 2
time step continuity errors : sum local = 0.00917298, global = -0.000161622, cumulative = 0.0499367
smoothSolver:  Solving for omega, Initial residual = 0.00144582, Final residual = 6.77385e-05, No Iterations 3
smoothSolver:  Solving for k, Initial residual = 0.0192955, Final residual = 0.00138195, No Iterations 3
ExecutionTime = 0.63 s  ClockTime = 1 s

scalarTransport execute: age
smoothSolver:  Solving for age, Initial residual = 0.0252788, Final residual = 0.0022276, No Iterations 11

Time = 54

smoothSolver:  Solving for Ux, Initial residual = 0.0137423, Final residual = 0.00129534, No Iterations 3
smoothSolver:  Solving for Uy, Initial residual = 0.0140304, Final residual = 0.00098376, No Iterations 4
GAMG:  Solving for p, Initial residual = 0.0344978, Final residual = 0.00198359, No Iterations 2
time step continuity errors : sum local = 0.00867223, global = -0.000272477, cumulative = 0.0496642
smoothSolver:  Solving for omega, Initial residual = 0.00143079, Final residual = 6.75038e-05, No Iterations 3
smoothSolver:  Solving for k, Initial residual = 0.0189812, Final residual = 0.00137351, No Iterations 3
ExecutionTime = 0.64 s  ClockTime = 1 s

scalarTransport execute: age
smoothSolver:  Solving for age, Initial residual = 0.0241531, Final residual = 0.00212068, No Iterations 11

Time = 55

smoothSolver:  Solving for Ux, Initial residual = 0.0135743, Final residual = 0.00127688, No Iterations 3
smoothSolver:  Solving for Uy, Initial residual = 0.0137627, Final residual = 0.000968625, No Iterations 4
GAMG:  Solving for p, Initial residual = 0.0332827, Final residual = 0.00188439, No Iterations 2
time step continuity errors : sum local = 0.0082219, global = -0.000384358, cumulative = 0.0492799
smoothSolver:  Solving for omega, Initial residual = 0.0014083, Final residual = 6.60871e-05, No Iterations 3
smoothSolver:  Solving for k, Initial residual = 0.0187072, Final residual = 0.00136669, No Iterations 3
ExecutionTime = 0.65 s  ClockTime = 1 s

scalarTransport execute: age
smoothSolver:  Solving for age, Initial residual = 0.0232296, Final residual = 0.00201295, No Iterations 11

Time = 56

smoothSolver:  Solving for Ux, Initial residual = 0.013324, Final residual = 0.00126515, No Iterations 3
smoothSolver:  Solving for Uy, Initial residual = 0.0134824, Final residual = 0.00094514, No Iterations 4
GAMG:  Solving for p, Initial residual = 0.0324614, Final residual = 0.00179026, No Iterations 2
time step continuity errors : sum local = 0.00781283, global = -0.000506541, cumulative = 0.0487733
smoothSolver:  Solving for omega, Initial residual = 0.00137194, Final residual = 6.37273e-05, No Iterations 3
smoothSolver:  Solving for k, Initial residual = 0.0183738, Final residual = 0.00135713, No Iterations 3
ExecutionTime = 0.67 s  ClockTime = 1 s

scalarTransport execute: age
smoothSolver:  Solving for age, Initial residual = 0.0223291, Final residual = 0.00192946, No Iterations 11

Time = 57

smoothSolver:  Solving for Ux, Initial residual = 0.013121, Final residual = 0.00125761, No Iterations 3
smoothSolver:  Solving for Uy, Initial residual = 0.0133385, Final residual = 0.00091858, No Iterations 4
GAMG:  Solving for p, Initial residual = 0.0320685, Final residual = 0.0016923, No Iterations 2
time step continuity errors : sum local = 0.00739804, global = -0.000585559, cumulative = 0.0481878
smoothSolver:  Solving for omega, Initial residual = 0.00133948, Final residual = 6.12353e-05, No Iterations 3
smoothSolver:  Solving for k, Initial residual = 0.018009, Final residual = 0.00133762, No Iterations 3
ExecutionTime = 0.68 s  ClockTime = 1 s

scalarTransport execute: age
smoothSolver:  Solving for age, Initial residual = 0.0219891, Final residual = 0.00214053, No Iterations 10

Time = 58

smoothSolver:  Solving for Ux, Initial residual = 0.0130076, Final residual = 0.0012399, No Iterations 3
smoothSolver:  Solving for Uy, Initial residual = 0.0132077, Final residual = 0.000886655, No Iterations 4
GAMG:  Solving for p, Initial residual = 0.03143, Final residual = 0.00163406, No Iterations 2
time step continuity errors : sum local = 0.00717168, global = -0.000610781, cumulative = 0.047577
smoothSolver:  Solving for omega, Initial residual = 0.00131046, Final residual = 5.94636e-05, No Iterations 3
smoothSolver:  Solving for k, Initial residual = 0.0177225, Final residual = 0.00131342, No Iterations 3
ExecutionTime = 0.69 s  ClockTime = 1 s

scalarTransport execute: age
smoothSolver:  Solving for age, Initial residual = 0.0214022, Final residual = 0.00205119, No Iterations 10

Time = 59

smoothSolver:  Solving for Ux, Initial residual = 0.0127866, Final residual = 0.00120281, No Iterations 3
smoothSolver:  Solving for Uy, Initial residual = 0.0128924, Final residual = 0.000858851, No Iterations 4
GAMG:  Solving for p, Initial residual = 0.0306242, Final residual = 0.00162287, No Iterations 2
time step continuity errors : sum local = 0.00716322, global = -0.000607506, cumulative = 0.0469695
smoothSolver:  Solving for omega, Initial residual = 0.0012854, Final residual = 5.85317e-05, No Iterations 3
smoothSolver:  Solving for k, Initial residual = 0.017512, Final residual = 0.00129067, No Iterations 3
ExecutionTime = 0.7 s  ClockTime = 1 s

scalarTransport execute: age
smoothSolver:  Solving for age, Initial residual = 0.020994, Final residual = 0.00196579, No Iterations 10

Time = 60

smoothSolver:  Solving for Ux, Initial residual = 0.0123815, Final residual = 0.00114807, No Iterations 3
smoothSolver:  Solving for Uy, Initial residual = 0.0124157, Final residual = 0.000832735, No Iterations 4
GAMG:  Solving for p, Initial residual = 0.0297604, Final residual = 0.00162566, No Iterations 2
time step continuity errors : sum local = 0.0072196, global = -0.000586821, cumulative = 0.0463827
smoothSolver:  Solving for omega, Initial residual = 0.0012562, Final residual = 5.76619e-05, No Iterations 3
smoothSolver:  Solving for k, Initial residual = 0.0173553, Final residual = 0.00127587, No Iterations 3
ExecutionTime = 0.71 s  ClockTime = 1 s

scalarTransport execute: age
smoothSolver:  Solving for age, Initial residual = 0.0207506, Final residual = 0.00190636, No Iterations 10

Time = 61

smoothSolver:  Solving for Ux, Initial residual = 0.0119215, Final residual = 0.00108012, No Iterations 3
smoothSolver:  Solving for Uy, Initial residual = 0.011988, Final residual = 0.000802278, No Iterations 4
GAMG:  Solving for p, Initial residual = 0.0285965, Final residual = 0.0016176, No Iterations 2
time step continuity errors : sum local = 0.00722931, global = -0.000554839, cumulative = 0.0458278
smoothSolver:  Solving for omega, Initial residual = 0.00121479, Final residual = 5.60317e-05, No Iterations 3
smoothSolver:  Solving for k, Initial residual = 0.0171514, Final residual = 0.00127046, No Iterations 3
ExecutionTime = 0.72 s  ClockTime = 1 s

scalarTransport execute: age
smoothSolver:  Solving for age, Initial residual = 0.0201838, Final residual = 0.00184347, No Iterations 10

Time = 62

smoothSolver:  Solving for Ux, Initial residual = 0.0114238, Final residual = 0.00100895, No Iterations 3
smoothSolver:  Solving for Uy, Initial residual = 0.0115067, Final residual = 0.000765931, No Iterations 4
GAMG:  Solving for p, Initial residual = 0.0272124, Final residual = 0.00162129, No Iterations 2
time step continuity errors : sum local = 0.00728191, global = -0.000523947, cumulative = 0.0453039
smoothSolver:  Solving for omega, Initial residual = 0.00116804, Final residual = 5.36543e-05, No Iterations 3
smoothSolver:  Solving for k, Initial residual = 0.0168487, Final residual = 0.00126808, No Iterations 3
ExecutionTime = 0.73 s  ClockTime = 1 s

scalarTransport execute: age
smoothSolver:  Solving for age, Initial residual = 0.019498, Final residual = 0.00176745, No Iterations 10

Time = 63

smoothSolver:  Solving for Ux, Initial residual = 0.0108761, Final residual = 0.000939147, No Iterations 3
smoothSolver:  Solving for Uy, Initial residual = 0.0109289, Final residual = 0.00072464, No Iterations 4
GAMG:  Solving for p, Initial residual = 0.0258472, Final residual = 0.00160853, No Iterations 2
time step continuity errors : sum local = 0.00725201, global = -0.000501405, cumulative = 0.0448025
smoothSolver:  Solving for omega, Initial residual = 0.00111766, Final residual = 5.04189e-05, No Iterations 3
smoothSolver:  Solving for k, Initial residual = 0.0165275, Final residual = 0.00124943, No Iterations 3
ExecutionTime = 0.74 s  ClockTime = 1 s

scalarTransport execute: age
smoothSolver:  Solving for age, Initial residual = 0.0187748, Final residual = 0.00169587, No Iterations 10

Time = 64

smoothSolver:  Solving for Ux, Initial residual = 0.0103624, Final residual = 0.000885054, No Iterations 3
smoothSolver:  Solving for Uy, Initial residual = 0.0105188, Final residual = 0.000684299, No Iterations 4
GAMG:  Solving for p, Initial residual = 0.0247367, Final residual = 0.00156832, No Iterations 2
time step continuity errors : sum local = 0.0070872, global = -0.000482657, cumulative = 0.0443198
smoothSolver:  Solving for omega, Initial residual = 0.00108142, Final residual = 4.74634e-05, No Iterations 3
smoothSolver:  Solving for k, Initial residual = 0.0161498, Final residual = 0.00121428, No Iterations 3
ExecutionTime = 0.76 s  ClockTime = 1 s

scalarTransport execute: age
smoothSolver:  Solving for age, Initial residual = 0.0182039, Final residual = 0.00166025, No Iterations 10

Time = 65

smoothSolver:  Solving for Ux, Initial residual = 0.00997527, Final residual = 0.000858974, No Iterations 3
smoothSolver:  Solving for Uy, Initial residual = 0.0102081, Final residual = 0.000648078, No Iterations 4
GAMG:  Solving for p, Initial residual = 0.0238515, Final residual = 0.00153475, No Iterations 2
time step continuity errors : sum local = 0.00693854, global = -0.000460554, cumulative = 0.0438593
smoothSolver:  Solving for omega, Initial residual = 0.00106321, Final residual = 4.62544e-05, No Iterations 3
smoothSolver:  Solving for k, Initial residual = 0.015743, Final residual = 0.00116543, No Iterations 3
ExecutionTime = 0.77 s  ClockTime = 1 s

scalarTransport execute: age
smoothSolver:  Solving for age, Initial residual = 0.0181238, Final residual = 0.0016698, No Iterations 10

Time = 66

smoothSolver:  Solving for Ux, Initial residual = 0.00966946, Final residual = 0.000854136, No Iterations 3
smoothSolver:  Solving for Uy, Initial residual = 0.00987841, Final residual = 0.000613654, No Iterations 4
GAMG:  Solving for p, Initial residual = 0.0233999, Final residual = 0.00155028, No Iterations 2
time step continuity errors : sum local = 0.00700064, global = -0.000432613, cumulative = 0.0434267
smoothSolver:  Solving for omega, Initial residual = 0.00104549, Final residual = 4.58978e-05, No Iterations 3
smoothSolver:  Solving for k, Initial residual = 0.0152745, Final residual = 0.00110752, No Iterations 3
ExecutionTime = 0.78 s  ClockTime = 1 s

scalarTransport execute: age
smoothSolver:  Solving for age, Initial residual = 0.0180044, Final residual = 0.00168388, No Iterations 10

Time = 67

smoothSolver:  Solving for Ux, Initial residual = 0.00946573, Final residual = 0.000862412, No Iterations 3
smoothSolver:  Solving for Uy, Initial residual = 0.00954547, Final residual = 0.000582377, No Iterations 4
GAMG:  Solving for p, Initial residual = 0.0230977, Final residual = 0.00156853, No Iterations 2
time step continuity errors : sum local = 0.0070644, global = -0.000402119, cumulative = 0.0430245
smoothSolver:  Solving for omega, Initial residual = 0.0010229, Final residual = 4.51163e-05, No Iterations 3
smoothSolver:  Solving for k, Initial residual = 0.0148352, Final residual = 0.00106215, No Iterations 3
ExecutionTime = 0.79 s  ClockTime = 1 s

scalarTransport execute: age
smoothSolver:  Solving for age, Initial residual = 0.0180228, Final residual = 0.001688, No Iterations 10

Time = 68

smoothSolver:  Solving for Ux, Initial residual = 0.00928708, Final residual = 0.000875548, No Iterations 3
smoothSolver:  Solving for Uy, Initial residual = 0.00913447, Final residual = 0.000553283, No Iterations 4
GAMG:  Solving for p, Initial residual = 0.0230649, Final residual = 0.00159264, No Iterations 2
time step continuity errors : sum local = 0.00714382, global = -0.00037509, cumulative = 0.0426494
smoothSolver:  Solving for omega, Initial residual = 0.000994217, Final residual = 4.36661e-05, No Iterations 3
smoothSolver:  Solving for k, Initial residual = 0.014585, Final residual = 0.00105642, No Iterations 3
ExecutionTime = 0.8 s  ClockTime = 1 s

scalarTransport execute: age
smoothSolver:  Solving for age, Initial residual = 0.0177212, Final residual = 0.00168459, No Iterations 10

Time = 69

smoothSolver:  Solving for Ux, Initial residual = 0.00908307, Final residual = 0.000884659, No Iterations 3
smoothSolver:  Solving for Uy, Initial residual = 0.00863544, Final residual = 0.000525493, No Iterations 4
GAMG:  Solving for p, Initial residual = 0.0230649, Final residual = 0.0016743, No Iterations 2
time step continuity errors : sum local = 0.00747102, global = -0.000358489, cumulative = 0.042291
smoothSolver:  Solving for omega, Initial residual = 0.000976807, Final residual = 9.73964e-05, No Iterations 2
smoothSolver:  Solving for k, Initial residual = 0.0145651, Final residual = 0.0010625, No Iterations 3
ExecutionTime = 0.81 s  ClockTime = 1 s

scalarTransport execute: age
smoothSolver:  Solving for age, Initial residual = 0.0172784, Final residual = 0.00167611, No Iterations 10

Time = 70

smoothSolver:  Solving for Ux, Initial residual = 0.00886852, Final residual = 0.000500255, No Iterations 4
smoothSolver:  Solving for Uy, Initial residual = 0.00832872, Final residual = 0.000502975, No Iterations 4
GAMG:  Solving for p, Initial residual = 0.0236847, Final residual = 0.0019326, No Iterations 2
time step continuity errors : sum local = 0.00857002, global = -0.000360823, cumulative = 0.0419301
smoothSolver:  Solving for omega, Initial residual = 0.00100586, Final residual = 4.3907e-05, No Iterations 3
smoothSolver:  Solving for k, Initial residual = 0.0145242, Final residual = 0.00104964, No Iterations 3
ExecutionTime = 0.82 s  ClockTime = 1 s

scalarTransport execute: age
smoothSolver:  Solving for age, Initial residual = 0.0170837, Final residual = 0.00167705, No Iterations 10

Time = 71

smoothSolver:  Solving for Ux, Initial residual = 0.00856556, Final residual = 0.000856097, No Iterations 3
smoothSolver:  Solving for Uy, Initial residual = 0.0081594, Final residual = 0.000494148, No Iterations 4
GAMG:  Solving for p, Initial residual = 0.023104, Final residual = 0.00184709, No Iterations 2
time step continuity errors : sum local = 0.00813798, global = -0.000378512, cumulative = 0.0415516
smoothSolver:  Solving for omega, Initial residual = 0.000983024, Final residual = 9.64328e-05, No Iterations 2
smoothSolver:  Solving for k, Initial residual = 0.0143292, Final residual = 0.00103154, No Iterations 3
ExecutionTime = 0.83 s  ClockTime = 1 s

scalarTransport execute: age
smoothSolver:  Solving for age, Initial residual = 0.0168976, Final residual = 0.00166836, No Iterations 10

Time = 72

smoothSolver:  Solving for Ux, Initial residual = 0.00836379, Final residual = 0.000480467, No Iterations 4
smoothSolver:  Solving for Uy, Initial residual = 0.00807552, Final residual = 0.000486639, No Iterations 4
GAMG:  Solving for p, Initial residual = 0.0234452, Final residual = 0.00198886, No Iterations 2
time step continuity errors : sum local = 0.00871395, global = -0.000405813, cumulative = 0.0411458
smoothSolver:  Solving for omega, Initial residual = 0.000993131, Final residual = 4.43785e-05, No Iterations 3
smoothSolver:  Solving for k, Initial residual = 0.0140923, Final residual = 0.00100207, No Iterations 3
ExecutionTime = 0.84 s  ClockTime = 1 s

scalarTransport execute: age
smoothSolver:  Solving for age, Initial residual = 0.0167467, Final residual = 0.00165693, No Iterations 10

Time = 73

smoothSolver:  Solving for Ux, Initial residual = 0.00802259, Final residual = 0.000449872, No Iterations 4
smoothSolver:  Solving for Uy, Initial residual = 0.00800216, Final residual = 0.000483918, No Iterations 4
GAMG:  Solving for p, Initial residual = 0.0229596, Final residual = 0.00175527, No Iterations 2
time step continuity errors : sum local = 0.00765417, global = -0.000429587, cumulative = 0.0407162
smoothSolver:  Solving for omega, Initial residual = 0.000957131, Final residual = 4.20902e-05, No Iterations 3
smoothSolver:  Solving for k, Initial residual = 0.0137226, Final residual = 0.000971754, No Iterations 3
ExecutionTime = 0.85 s  ClockTime = 1 s

scalarTransport execute: age
smoothSolver:  Solving for age, Initial residual = 0.0167355, Final residual = 0.001628, No Iterations 10

Time = 74

smoothSolver:  Solving for Ux, Initial residual = 0.00764086, Final residual = 0.000743083, No Iterations 3
smoothSolver:  Solving for Uy, Initial residual = 0.00778819, Final residual = 0.000475349, No Iterations 4
GAMG:  Solving for p, Initial residual = 0.0213924, Final residual = 0.00132301, No Iterations 2
time step continuity errors : sum local = 0.00574938, global = -0.000422224, cumulative = 0.040294
smoothSolver:  Solving for omega, Initial residual = 0.0008986, Final residual = 3.91946e-05, No Iterations 3
smoothSolver:  Solving for k, Initial residual = 0.0131611, Final residual = 0.000938906, No Iterations 3
ExecutionTime = 0.86 s  ClockTime = 1 s

scalarTransport execute: age
smoothSolver:  Solving for age, Initial residual = 0.0165946, Final residual = 0.00158587, No Iterations 10

Time = 75

smoothSolver:  Solving for Ux, Initial residual = 0.00739891, Final residual = 0.000708632, No Iterations 3
smoothSolver:  Solving for Uy, Initial residual = 0.00749938, Final residual = 0.00045717, No Iterations 4
GAMG:  Solving for p, Initial residual = 0.0202846, Final residual = 0.00114798, No Iterations 2
time step continuity errors : sum local = 0.00497656, global = -0.000404034, cumulative = 0.03989
smoothSolver:  Solving for omega, Initial residual = 0.000842279, Final residual = 8.3494e-05, No Iterations 2
smoothSolver:  Solving for k, Initial residual = 0.0125952, Final residual = 0.000895681, No Iterations 3
ExecutionTime = 0.88 s  ClockTime = 1 s

scalarTransport execute: age
smoothSolver:  Solving for age, Initial residual = 0.0163598, Final residual = 0.00157429, No Iterations 10

Time = 76

smoothSolver:  Solving for Ux, Initial residual = 0.00717499, Final residual = 0.000674511, No Iterations 3
smoothSolver:  Solving for Uy, Initial residual = 0.00736308, Final residual = 0.000435918, No Iterations 4
GAMG:  Solving for p, Initial residual = 0.0194833, Final residual = 0.00104948, No Iterations 2
time step continuity errors : sum local = 0.00454156, global = -0.000382018, cumulative = 0.0395079
smoothSolver:  Solving for omega, Initial residual = 0.000831931, Final residual = 8.22497e-05, No Iterations 2
smoothSolver:  Solving for k, Initial residual = 0.0119971, Final residual = 0.000837302, No Iterations 3
ExecutionTime = 0.89 s  ClockTime = 1 s

scalarTransport execute: age
smoothSolver:  Solving for age, Initial residual = 0.0160631, Final residual = 0.00157882, No Iterations 10

Time = 77

smoothSolver:  Solving for Ux, Initial residual = 0.00698513, Final residual = 0.000647128, No Iterations 3
smoothSolver:  Solving for Uy, Initial residual = 0.00722141, Final residual = 0.000416064, No Iterations 4
GAMG:  Solving for p, Initial residual = 0.0188565, Final residual = 0.000990815, No Iterations 2
time step continuity errors : sum local = 0.00427872, global = -0.000353139, cumulative = 0.0391548
smoothSolver:  Solving for omega, Initial residual = 0.000809453, Final residual = 7.95579e-05, No Iterations 2
smoothSolver:  Solving for k, Initial residual = 0.0114383, Final residual = 0.000768319, No Iterations 3
ExecutionTime = 0.9 s  ClockTime = 1 s

scalarTransport execute: age
smoothSolver:  Solving for age, Initial residual = 0.0156529, Final residual = 0.00156516, No Iterations 10

Time = 78

smoothSolver:  Solving for Ux, Initial residual = 0.00685628, Final residual = 0.000628801, No Iterations 3
smoothSolver:  Solving for Uy, Initial residual = 0.00716502, Final residual = 0.000397399, No Iterations 4
GAMG:  Solving for p, Initial residual = 0.0184018, Final residual = 0.000999105, No Iterations 2
time step continuity errors : sum local = 0.00430507, global = -0.000315732, cumulative = 0.0388391
smoothSolver:  Solving for omega, Initial residual = 0.000782123, Final residual = 7.76808e-05, No Iterations 2
smoothSolver:  Solving for k, Initial residual = 0.0108465, Final residual = 0.000695831, No Iterations 3
ExecutionTime = 0.91 s  ClockTime = 1 s

scalarTransport execute: age
smoothSolver:  Solving for age, Initial residual = 0.0153404, Final residual = 0.00151271, No Iterations 10

Time = 79

smoothSolver:  Solving for Ux, Initial residual = 0.00674487, Final residual = 0.000610755, No Iterations 3
smoothSolver:  Solving for Uy, Initial residual = 0.00707424, Final residual = 0.000380368, No Iterations 4
GAMG:  Solving for p, Initial residual = 0.0179262, Final residual = 0.001067, No Iterations 2
time step continuity errors : sum local = 0.00458881, global = -0.000272109, cumulative = 0.038567
smoothSolver:  Solving for omega, Initial residual = 0.000745957, Final residual = 3.18013e-05, No Iterations 3
smoothSolver:  Solving for k, Initial residual = 0.0102623, Final residual = 0.000630653, No Iterations 3
ExecutionTime = 0.92 s  ClockTime = 1 s

scalarTransport execute: age
smoothSolver:  Solving for age, Initial residual = 0.0150253, Final residual = 0.0014406, No Iterations 10

Time = 80

smoothSolver:  Solving for Ux, Initial residual = 0.0065854, Final residual = 0.000584282, No Iterations 3
smoothSolver:  Solving for Uy, Initial residual = 0.00695075, Final residual = 0.000692672, No Iterations 3
GAMG:  Solving for p, Initial residual = 0.0170363, Final residual = 0.00113493, No Iterations 2
time step continuity errors : sum local = 0.00487467, global = -0.000216972, cumulative = 0.03835
smoothSolver:  Solving for omega, Initial residual = 0.000663724, Final residual = 2.85573e-05, No Iterations 3
smoothSolver:  Solving for k, Initial residual = 0.00968078, Final residual = 0.000575473, No Iterations 3
ExecutionTime = 0.93 s  ClockTime = 1 s

scalarTransport execute: age
smoothSolver:  Solving for age, Initial residual = 0.0145384, Final residual = 0.00140959, No Iterations 10

Time = 81

smoothSolver:  Solving for Ux, Initial residual = 0.00634146, Final residual = 0.000549438, No Iterations 3
smoothSolver:  Solving for Uy, Initial residual = 0.0066868, Final residual = 0.00038036, No Iterations 4
GAMG:  Solving for p, Initial residual = 0.0167565, Final residual = 0.00117306, No Iterations 2
time step continuity errors : sum local = 0.0050347, global = -0.000179028, cumulative = 0.038171
smoothSolver:  Solving for omega, Initial residual = 0.000613563, Final residual = 2.69809e-05, No Iterations 3
smoothSolver:  Solving for k, Initial residual = 0.0092378, Final residual = 0.000544452, No Iterations 3
ExecutionTime = 0.94 s  ClockTime = 1 s

scalarTransport execute: age
smoothSolver:  Solving for age, Initial residual = 0.0140456, Final residual = 0.00135278, No Iterations 10

Time = 82

smoothSolver:  Solving for Ux, Initial residual = 0.00616495, Final residual = 0.000528327, No Iterations 3
smoothSolver:  Solving for Uy, Initial residual = 0.00641579, Final residual = 0.000377372, No Iterations 4
GAMG:  Solving for p, Initial residual = 0.0158284, Final residual = 0.001157, No Iterations 2
time step continuity errors : sum local = 0.00496375, global = -0.000139034, cumulative = 0.0380319
smoothSolver:  Solving for omega, Initial residual = 0.00058047, Final residual = 2.59675e-05, No Iterations 3
smoothSolver:  Solving for k, Initial residual = 0.00893055, Final residual = 0.000535265, No Iterations 3
ExecutionTime = 0.95 s  ClockTime = 1 s

scalarTransport execute: age
smoothSolver:  Solving for age, Initial residual = 0.013472, Final residual = 0.0012854, No Iterations 10

Time = 83

smoothSolver:  Solving for Ux, Initial residual = 0.00600309, Final residual = 0.000531299, No Iterations 3
smoothSolver:  Solving for Uy, Initial residual = 0.0061218, Final residual = 0.000372271, No Iterations 4
GAMG:  Solving for p, Initial residual = 0.0150126, Final residual = 0.00111455, No Iterations 2
time step continuity errors : sum local = 0.00478088, global = -9.92145e-05, cumulative = 0.0379327
smoothSolver:  Solving for omega, Initial residual = 0.000559315, Final residual = 2.5039e-05, No Iterations 3
smoothSolver:  Solving for k, Initial residual = 0.00872081, Final residual = 0.000538244, No Iterations 3
ExecutionTime = 0.96 s  ClockTime = 1 s

scalarTransport execute: age
smoothSolver:  Solving for age, Initial residual = 0.0129329, Final residual = 0.0012179, No Iterations 10

Time = 84

smoothSolver:  Solving for Ux, Initial residual = 0.00586742, Final residual = 0.000544278, No Iterations 3
smoothSolver:  Solving for Uy, Initial residual = 0.00591092, Final residual = 0.000368008, No Iterations 4
GAMG:  Solving for p, Initial residual = 0.0143707, Final residual = 0.00107258, No Iterations 2
time step continuity errors : sum local = 0.00460084, global = -6.23293e-05, cumulative = 0.0378704
smoothSolver:  Solving for omega, Initial residual = 0.000553503, Final residual = 2.48533e-05, No Iterations 3
smoothSolver:  Solving for k, Initial residual = 0.00863986, Final residual = 0.000542442, No Iterations 3
ExecutionTime = 0.97 s  ClockTime = 1 s

scalarTransport execute: age
smoothSolver:  Solving for age, Initial residual = 0.0122368, Final residual = 0.00115478, No Iterations 10

Time = 85

smoothSolver:  Solving for Ux, Initial residual = 0.00577665, Final residual = 0.000552234, No Iterations 3
smoothSolver:  Solving for Uy, Initial residual = 0.00585221, Final residual = 0.000361203, No Iterations 4
GAMG:  Solving for p, Initial residual = 0.0138525, Final residual = 0.00104561, No Iterations 2
time step continuity errors : sum local = 0.00448538, global = -1.98069e-05, cumulative = 0.0378506
smoothSolver:  Solving for omega, Initial residual = 0.00056001, Final residual = 2.49305e-05, No Iterations 3
smoothSolver:  Solving for k, Initial residual = 0.00863991, Final residual = 0.000545793, No Iterations 3
ExecutionTime = 0.98 s  ClockTime = 1 s

scalarTransport execute: age
smoothSolver:  Solving for age, Initial residual = 0.0118273, Final residual = 0.00110139, No Iterations 10

Time = 86

smoothSolver:  Solving for Ux, Initial residual = 0.00565982, Final residual = 0.00054333, No Iterations 3
smoothSolver:  Solving for Uy, Initial residual = 0.00574967, Final residual = 0.000355832, No Iterations 4
GAMG:  Solving for p, Initial residual = 0.0135688, Final residual = 0.00106445, No Iterations 2
time step continuity errors : sum local = 0.00456611, global = 2.81453e-05, cumulative = 0.0378787
smoothSolver:  Solving for omega, Initial residual = 0.000559558, Final residual = 2.44724e-05, No Iterations 3
smoothSolver:  Solving for k, Initial residual = 0.00859449, Final residual = 0.000541696, No Iterations 3
ExecutionTime = 0.99 s  ClockTime = 1 s

scalarTransport execute: age
smoothSolver:  Solving for age, Initial residual = 0.0113723, Final residual = 0.00105857, No Iterations 10

Time = 87

smoothSolver:  Solving for Ux, Initial residual = 0.00550362, Final residual = 0.000517432, No Iterations 3
smoothSolver:  Solving for Uy, Initial residual = 0.00567598, Final residual = 0.000353642, No Iterations 4
GAMG:  Solving for p, Initial residual = 0.0133743, Final residual = 0.00108107, No Iterations 2
time step continuity errors : sum local = 0.00463439, global = 8.29947e-05, cumulative = 0.0379617
smoothSolver:  Solving for omega, Initial residual = 0.000552834, Final residual = 5.52628e-05, No Iterations 2
smoothSolver:  Solving for k, Initial residual = 0.0084701, Final residual = 0.000526121, No Iterations 3
ExecutionTime = 1.01 s  ClockTime = 1 s

scalarTransport execute: age
smoothSolver:  Solving for age, Initial residual = 0.0110017, Final residual = 0.00103114, No Iterations 10

Time = 88

smoothSolver:  Solving for Ux, Initial residual = 0.00528466, Final residual = 0.000482825, No Iterations 3
smoothSolver:  Solving for Uy, Initial residual = 0.00558416, Final residual = 0.000349718, No Iterations 4
GAMG:  Solving for p, Initial residual = 0.0130631, Final residual = 0.00107921, No Iterations 2
time step continuity errors : sum local = 0.00462065, global = 0.000143022, cumulative = 0.0381047
smoothSolver:  Solving for omega, Initial residual = 0.000557697, Final residual = 2.40618e-05, No Iterations 3
smoothSolver:  Solving for k, Initial residual = 0.00810413, Final residual = 0.000492479, No Iterations 3
ExecutionTime = 1.02 s  ClockTime = 1 s

scalarTransport execute: age
smoothSolver:  Solving for age, Initial residual = 0.0106777, Final residual = 0.00101501, No Iterations 10

Time = 89

smoothSolver:  Solving for Ux, Initial residual = 0.00507757, Final residual = 0.000453552, No Iterations 3
smoothSolver:  Solving for Uy, Initial residual = 0.00541389, Final residual = 0.000336901, No Iterations 4
GAMG:  Solving for p, Initial residual = 0.0126215, Final residual = 0.00101501, No Iterations 2
time step continuity errors : sum local = 0.00433706, global = 0.000182782, cumulative = 0.0382875
smoothSolver:  Solving for omega, Initial residual = 0.00052494, Final residual = 5.09956e-05, No Iterations 2
smoothSolver:  Solving for k, Initial residual = 0.00762642, Final residual = 0.000448997, No Iterations 3
ExecutionTime = 1.03 s  ClockTime = 1 s

scalarTransport execute: age
smoothSolver:  Solving for age, Initial residual = 0.0103637, Final residual = 0.000998294, No Iterations 10

Time = 90

smoothSolver:  Solving for Ux, Initial residual = 0.00487257, Final residual = 0.000435017, No Iterations 3
smoothSolver:  Solving for Uy, Initial residual = 0.00523034, Final residual = 0.000319989, No Iterations 4
GAMG:  Solving for p, Initial residual = 0.0122084, Final residual = 0.00096509, No Iterations 2
time step continuity errors : sum local = 0.00410953, global = 0.000206984, cumulative = 0.0384945
smoothSolver:  Solving for omega, Initial residual = 0.000516303, Final residual = 5.09156e-05, No Iterations 2
smoothSolver:  Solving for k, Initial residual = 0.0071963, Final residual = 0.000417173, No Iterations 3
ExecutionTime = 1.04 s  ClockTime = 1 s

scalarTransport execute: age
smoothSolver:  Solving for age, Initial residual = 0.0101136, Final residual = 0.000992619, No Iterations 10

Time = 91

smoothSolver:  Solving for Ux, Initial residual = 0.00472324, Final residual = 0.000425173, No Iterations 3
smoothSolver:  Solving for Uy, Initial residual = 0.00500145, Final residual = 0.000300304, No Iterations 4
GAMG:  Solving for p, Initial residual = 0.0117887, Final residual = 0.000940745, No Iterations 2
time step continuity errors : sum local = 0.00398949, global = 0.000212485, cumulative = 0.038707
smoothSolver:  Solving for omega, Initial residual = 0.000519512, Final residual = 5.102e-05, No Iterations 2
smoothSolver:  Solving for k, Initial residual = 0.006872, Final residual = 0.000392813, No Iterations 3
ExecutionTime = 1.05 s  ClockTime = 1 s

scalarTransport execute: age
smoothSolver:  Solving for age, Initial residual = 0.00994384, Final residual = 0.00086749, No Iterations 11

Time = 92

smoothSolver:  Solving for Ux, Initial residual = 0.0038028, Final residual = 0.000335356, No Iterations 3
smoothSolver:  Solving for Uy, Initial residual = 0.00498248, Final residual = 0.000277045, No Iterations 4
GAMG:  Solving for p, Initial residual = 0.0112839, Final residual = 0.000940782, No Iterations 2
time step continuity errors : sum local = 0.00397218, global = 0.000197936, cumulative = 0.0389049
smoothSolver:  Solving for omega, Initial residual = 0.000505473, Final residual = 4.96838e-05, No Iterations 2
smoothSolver:  Solving for k, Initial residual = 0.00658038, Final residual = 0.000370316, No Iterations 3
ExecutionTime = 1.06 s  ClockTime = 1 s

scalarTransport execute: age
smoothSolver:  Solving for age, Initial residual = 0.00971076, Final residual = 0.000866917, No Iterations 11

Time = 93

smoothSolver:  Solving for Ux, Initial residual = 0.00437802, Final residual = 0.000397667, No Iterations 3
smoothSolver:  Solving for Uy, Initial residual = 0.00442782, Final residual = 0.000252505, No Iterations 4
GAMG:  Solving for p, Initial residual = 0.0106, Final residual = 0.000911166, No Iterations 2
time step continuity errors : sum local = 0.00383063, global = 0.0001624, cumulative = 0.0390673
smoothSolver:  Solving for omega, Initial residual = 0.000509002, Final residual = 4.99673e-05, No Iterations 2
smoothSolver:  Solving for k, Initial residual = 0.00622006, Final residual = 0.000350751, No Iterations 3
ExecutionTime = 1.07 s  ClockTime = 1 s

scalarTransport execute: age
smoothSolver:  Solving for age, Initial residual = 0.00940901, Final residual = 0.000867106, No Iterations 11

Time = 94

smoothSolver:  Solving for Ux, Initial residual = 0.00417041, Final residual = 0.000374683, No Iterations 3
smoothSolver:  Solving for Uy, Initial residual = 0.00411872, Final residual = 0.000232203, No Iterations 4
GAMG:  Solving for p, Initial residual = 0.00988882, Final residual = 0.000815253, No Iterations 2
time step continuity errors : sum local = 0.00341374, global = 0.000106282, cumulative = 0.0391736
smoothSolver:  Solving for omega, Initial residual = 0.000484622, Final residual = 4.73452e-05, No Iterations 2
smoothSolver:  Solving for k, Initial residual = 0.00577791, Final residual = 0.000332853, No Iterations 3
ExecutionTime = 1.08 s  ClockTime = 1 s

scalarTransport execute: age
smoothSolver:  Solving for age, Initial residual = 0.00909211, Final residual = 0.000858986, No Iterations 11

Time = 95

smoothSolver:  Solving for Ux, Initial residual = 0.00390117, Final residual = 0.000354552, No Iterations 3
smoothSolver:  Solving for Uy, Initial residual = 0.00381169, Final residual = 0.000213804, No Iterations 4
GAMG:  Solving for p, Initial residual = 0.00925364, Final residual = 0.000681528, No Iterations 2
time step continuity errors : sum local = 0.00284398, global = 3.56351e-05, cumulative = 0.0392092
smoothSolver:  Solving for omega, Initial residual = 0.000450876, Final residual = 4.36344e-05, No Iterations 2
smoothSolver:  Solving for k, Initial residual = 0.00529952, Final residual = 0.000311691, No Iterations 3
ExecutionTime = 1.09 s  ClockTime = 1 s

scalarTransport execute: age
smoothSolver:  Solving for age, Initial residual = 0.00874721, Final residual = 0.000833523, No Iterations 11

Time = 96

smoothSolver:  Solving for Ux, Initial residual = 0.00364938, Final residual = 0.000339221, No Iterations 3
smoothSolver:  Solving for Uy, Initial residual = 0.00350335, Final residual = 0.000200552, No Iterations 4
GAMG:  Solving for p, Initial residual = 0.00871183, Final residual = 0.000565638, No Iterations 2
time step continuity errors : sum local = 0.00235447, global = -4.82497e-05, cumulative = 0.039161
[...]

Time = 551

smoothSolver:  Solving for Ux, Initial residual = 5.13377e-07, Final residual = 3.06949e-08, No Iterations 4
smoothSolver:  Solving for Uy, Initial residual = 5.14925e-07, Final residual = 3.50505e-08, No Iterations 4
GAMG:  Solving for p, Initial residual = 1.65391e-06, Final residual = 1.21112e-07, No Iterations 2
time step continuity errors : sum local = 4.97673e-07, global = -4.48955e-09, cumulative = 0.0355491
smoothSolver:  Solving for omega, Initial residual = 4.41324e-08, Final residual = 5.61295e-09, No Iterations 2
smoothSolver:  Solving for k, Initial residual = 4.16974e-07, Final residual = 3.44077e-08, No Iterations 3
ExecutionTime = 6.24 s  ClockTime = 7 s

scalarTransport execute: age
smoothSolver:  Solving for age, Initial residual = 0.000450367, Final residual = 4.32435e-05, No Iterations 14

Time = 552

smoothSolver:  Solving for Ux, Initial residual = 5.05272e-07, Final residual = 3.07709e-08, No Iterations 4
smoothSolver:  Solving for Uy, Initial residual = 5.13385e-07, Final residual = 3.61422e-08, No Iterations 4
GAMG:  Solving for p, Initial residual = 1.62435e-06, Final residual = 1.16892e-07, No Iterations 2
time step continuity errors : sum local = 4.8033e-07, global = -4.39162e-09, cumulative = 0.0355491
smoothSolver:  Solving for omega, Initial residual = 4.42016e-08, Final residual = 5.79528e-09, No Iterations 2
smoothSolver:  Solving for k, Initial residual = 4.2117e-07, Final residual = 3.49343e-08, No Iterations 3
ExecutionTime = 6.25 s  ClockTime = 7 s

scalarTransport execute: age
smoothSolver:  Solving for age, Initial residual = 0.000449395, Final residual = 4.31449e-05, No Iterations 14

Time = 553

smoothSolver:  Solving for Ux, Initial residual = 5.07413e-07, Final residual = 3.11002e-08, No Iterations 4
smoothSolver:  Solving for Uy, Initial residual = 5.12659e-07, Final residual = 3.78642e-08, No Iterations 4
GAMG:  Solving for p, Initial residual = 1.60242e-06, Final residual = 1.17044e-07, No Iterations 2
time step continuity errors : sum local = 4.80956e-07, global = -4.19748e-09, cumulative = 0.0355491
smoothSolver:  Solving for omega, Initial residual = 4.47837e-08, Final residual = 5.99284e-09, No Iterations 2
smoothSolver:  Solving for k, Initial residual = 4.29918e-07, Final residual = 3.50815e-08, No Iterations 3
ExecutionTime = 6.26 s  ClockTime = 7 s

scalarTransport execute: age
smoothSolver:  Solving for age, Initial residual = 0.000448426, Final residual = 4.30463e-05, No Iterations 14

Time = 554

smoothSolver:  Solving for Ux, Initial residual = 5.11359e-07, Final residual = 3.12787e-08, No Iterations 4
smoothSolver:  Solving for Uy, Initial residual = 5.19139e-07, Final residual = 3.96249e-08, No Iterations 4
GAMG:  Solving for p, Initial residual = 1.56355e-06, Final residual = 1.17051e-07, No Iterations 2
time step continuity errors : sum local = 4.80986e-07, global = -3.81111e-09, cumulative = 0.0355491
smoothSolver:  Solving for omega, Initial residual = 4.50768e-08, Final residual = 6.09387e-09, No Iterations 2
smoothSolver:  Solving for k, Initial residual = 4.40817e-07, Final residual = 3.51388e-08, No Iterations 3
ExecutionTime = 6.28 s  ClockTime = 7 s

scalarTransport execute: age
smoothSolver:  Solving for age, Initial residual = 0.000447461, Final residual = 4.29489e-05, No Iterations 14

Time = 555

smoothSolver:  Solving for Ux, Initial residual = 5.1243e-07, Final residual = 3.12801e-08, No Iterations 4
smoothSolver:  Solving for Uy, Initial residual = 5.27568e-07, Final residual = 4.10739e-08, No Iterations 4
GAMG:  Solving for p, Initial residual = 1.49878e-06, Final residual = 1.13569e-07, No Iterations 2
time step continuity errors : sum local = 4.66676e-07, global = -3.18243e-09, cumulative = 0.0355491
smoothSolver:  Solving for omega, Initial residual = 4.46208e-08, Final residual = 6.0636e-09, No Iterations 2
smoothSolver:  Solving for k, Initial residual = 4.53833e-07, Final residual = 3.5522e-08, No Iterations 3
ExecutionTime = 6.29 s  ClockTime = 7 s

scalarTransport execute: age
smoothSolver:  Solving for age, Initial residual = 0.000446498, Final residual = 4.28536e-05, No Iterations 14

Time = 556

smoothSolver:  Solving for Ux, Initial residual = 5.0601e-07, Final residual = 3.12676e-08, No Iterations 4
smoothSolver:  Solving for Uy, Initial residual = 5.32102e-07, Final residual = 4.18176e-08, No Iterations 4
GAMG:  Solving for p, Initial residual = 1.42773e-06, Final residual = 1.09599e-07, No Iterations 2
time step continuity errors : sum local = 4.50364e-07, global = -2.35112e-09, cumulative = 0.0355491
smoothSolver:  Solving for omega, Initial residual = 4.34439e-08, Final residual = 5.95161e-09, No Iterations 2
smoothSolver:  Solving for k, Initial residual = 4.6405e-07, Final residual = 3.63154e-08, No Iterations 3
ExecutionTime = 6.3 s  ClockTime = 7 s

scalarTransport execute: age
smoothSolver:  Solving for age, Initial residual = 0.000445542, Final residual = 4.27605e-05, No Iterations 14

Time = 557

smoothSolver:  Solving for Ux, Initial residual = 4.957e-07, Final residual = 3.16054e-08, No Iterations 4
smoothSolver:  Solving for Uy, Initial residual = 5.33207e-07, Final residual = 4.18896e-08, No Iterations 4
GAMG:  Solving for p, Initial residual = 1.38624e-06, Final residual = 1.07181e-07, No Iterations 2
time step continuity errors : sum local = 4.40426e-07, global = -1.45219e-09, cumulative = 0.0355491
smoothSolver:  Solving for omega, Initial residual = 4.2471e-08, Final residual = 5.88379e-09, No Iterations 2
smoothSolver:  Solving for k, Initial residual = 4.70316e-07, Final residual = 3.70544e-08, No Iterations 3
ExecutionTime = 6.31 s  ClockTime = 7 s

scalarTransport execute: age
smoothSolver:  Solving for age, Initial residual = 0.000444591, Final residual = 4.26696e-05, No Iterations 14

Time = 558

smoothSolver:  Solving for Ux, Initial residual = 4.87283e-07, Final residual = 3.18457e-08, No Iterations 4
smoothSolver:  Solving for Uy, Initial residual = 5.31624e-07, Final residual = 4.1258e-08, No Iterations 4
GAMG:  Solving for p, Initial residual = 1.37476e-06, Final residual = 1.07874e-07, No Iterations 2
time step continuity errors : sum local = 4.43274e-07, global = -6.30934e-10, cumulative = 0.0355491
smoothSolver:  Solving for omega, Initial residual = 4.20342e-08, Final residual = 5.90436e-09, No Iterations 2
smoothSolver:  Solving for k, Initial residual = 4.74529e-07, Final residual = 3.72246e-08, No Iterations 3
ExecutionTime = 6.32 s  ClockTime = 7 s

scalarTransport execute: age
smoothSolver:  Solving for age, Initial residual = 0.000443645, Final residual = 4.25807e-05, No Iterations 14

Time = 559

smoothSolver:  Solving for Ux, Initial residual = 4.81483e-07, Final residual = 3.15431e-08, No Iterations 4
smoothSolver:  Solving for Uy, Initial residual = 5.30321e-07, Final residual = 4.08477e-08, No Iterations 4
GAMG:  Solving for p, Initial residual = 1.37532e-06, Final residual = 1.10391e-07, No Iterations 2
time step continuity errors : sum local = 4.53618e-07, global = 2.55958e-11, cumulative = 0.0355491
smoothSolver:  Solving for omega, Initial residual = 4.22993e-08, Final residual = 5.98257e-09, No Iterations 2
smoothSolver:  Solving for k, Initial residual = 4.72682e-07, Final residual = 3.70473e-08, No Iterations 3
ExecutionTime = 6.33 s  ClockTime = 7 s

scalarTransport execute: age
smoothSolver:  Solving for age, Initial residual = 0.000442702, Final residual = 4.24934e-05, No Iterations 14

Time = 560

smoothSolver:  Solving for Ux, Initial residual = 4.76655e-07, Final residual = 3.0798e-08, No Iterations 4
smoothSolver:  Solving for Uy, Initial residual = 5.27683e-07, Final residual = 4.06521e-08, No Iterations 4
GAMG:  Solving for p, Initial residual = 1.36033e-06, Final residual = 1.13283e-07, No Iterations 2
time step continuity errors : sum local = 4.655e-07, global = 4.94997e-10, cumulative = 0.0355491
smoothSolver:  Solving for omega, Initial residual = 4.24867e-08, Final residual = 6.08683e-09, No Iterations 2
smoothSolver:  Solving for k, Initial residual = 4.68484e-07, Final residual = 3.65916e-08, No Iterations 3
ExecutionTime = 6.34 s  ClockTime = 7 s

scalarTransport execute: age
smoothSolver:  Solving for age, Initial residual = 0.000441758, Final residual = 4.24076e-05, No Iterations 14

Time = 561

smoothSolver:  Solving for Ux, Initial residual = 4.72369e-07, Final residual = 3.00412e-08, No Iterations 4
smoothSolver:  Solving for Uy, Initial residual = 5.2009e-07, Final residual = 4.03839e-08, No Iterations 4
GAMG:  Solving for p, Initial residual = 1.32215e-06, Final residual = 1.12136e-07, No Iterations 2
time step continuity errors : sum local = 4.60787e-07, global = 8.00603e-10, cumulative = 0.0355491
smoothSolver:  Solving for omega, Initial residual = 4.20058e-08, Final residual = 6.11543e-09, No Iterations 2
smoothSolver:  Solving for k, Initial residual = 4.66267e-07, Final residual = 3.58503e-08, No Iterations 3
ExecutionTime = 6.35 s  ClockTime = 7 s

scalarTransport execute: age
smoothSolver:  Solving for age, Initial residual = 0.000440811, Final residual = 4.23227e-05, No Iterations 14

Time = 562

smoothSolver:  Solving for Ux, Initial residual = 4.67155e-07, Final residual = 2.9018e-08, No Iterations 4
smoothSolver:  Solving for Uy, Initial residual = 5.0813e-07, Final residual = 3.97591e-08, No Iterations 4
GAMG:  Solving for p, Initial residual = 1.27193e-06, Final residual = 1.04193e-07, No Iterations 2
time step continuity errors : sum local = 4.2815e-07, global = 9.8081e-10, cumulative = 0.0355491
smoothSolver:  Solving for omega, Initial residual = 4.05049e-08, Final residual = 5.97299e-09, No Iterations 2
smoothSolver:  Solving for k, Initial residual = 4.59325e-07, Final residual = 3.58996e-08, No Iterations 3
ExecutionTime = 6.37 s  ClockTime = 7 s

scalarTransport execute: age
smoothSolver:  Solving for age, Initial residual = 0.000439865, Final residual = 4.22379e-05, No Iterations 14

Time = 563

smoothSolver:  Solving for Ux, Initial residual = 4.56674e-07, Final residual = 2.78777e-08, No Iterations 4
smoothSolver:  Solving for Uy, Initial residual = 4.91285e-07, Final residual = 3.8528e-08, No Iterations 4
GAMG:  Solving for p, Initial residual = 1.22335e-06, Final residual = 9.35813e-08, No Iterations 2
time step continuity errors : sum local = 3.84544e-07, global = 1.06171e-09, cumulative = 0.0355491
smoothSolver:  Solving for omega, Initial residual = 3.82847e-08, Final residual = 5.69735e-09, No Iterations 2
smoothSolver:  Solving for k, Initial residual = 4.4882e-07, Final residual = 3.63029e-08, No Iterations 3
ExecutionTime = 6.38 s  ClockTime = 7 s

scalarTransport execute: age
smoothSolver:  Solving for age, Initial residual = 0.000438923, Final residual = 4.21526e-05, No Iterations 14

Time = 564

smoothSolver:  Solving for Ux, Initial residual = 4.51227e-07, Final residual = 2.70358e-08, No Iterations 4
smoothSolver:  Solving for Uy, Initial residual = 6.11051e-07, Final residual = 3.83418e-08, No Iterations 4
GAMG:  Solving for p, Initial residual = 2.77495e-06, Final residual = 2.45553e-07, No Iterations 2
time step continuity errors : sum local = 1.00899e-06, global = 1.03548e-09, cumulative = 0.0355491
smoothSolver:  Solving for omega, Initial residual = 2.07983e-07, Final residual = 1.71698e-08, No Iterations 1
smoothSolver:  Solving for k, Initial residual = 4.56879e-07, Final residual = 3.75277e-08, No Iterations 3
ExecutionTime = 6.39 s  ClockTime = 7 s

scalarTransport execute: age
smoothSolver:  Solving for age, Initial residual = 0.000438098, Final residual = 4.2066e-05, No Iterations 14

Time = 565

smoothSolver:  Solving for Ux, Initial residual = 5.79159e-07, Final residual = 4.87645e-08, No Iterations 3
smoothSolver:  Solving for Uy, Initial residual = 7.39915e-07, Final residual = 6.43613e-08, No Iterations 3
GAMG:  Solving for p, Initial residual = 2.16754e-06, Final residual = 1.67479e-07, No Iterations 2
time step continuity errors : sum local = 6.88203e-07, global = 4.67815e-10, cumulative = 0.0355491
smoothSolver:  Solving for omega, Initial residual = 2.50255e-07, Final residual = 1.90818e-08, No Iterations 1
smoothSolver:  Solving for k, Initial residual = 4.4008e-07, Final residual = 3.76224e-08, No Iterations 3
ExecutionTime = 6.4 s  ClockTime = 7 s

scalarTransport execute: age
smoothSolver:  Solving for age, Initial residual = 0.00043714, Final residual = 4.19781e-05, No Iterations 14

Time = 566

smoothSolver:  Solving for Ux, Initial residual = 5.34447e-07, Final residual = 4.71069e-08, No Iterations 3
smoothSolver:  Solving for Uy, Initial residual = 6.23365e-07, Final residual = 3.62302e-08, No Iterations 4
GAMG:  Solving for p, Initial residual = 1.95378e-06, Final residual = 1.63308e-07, No Iterations 2
time step continuity errors : sum local = 6.71062e-07, global = 2.61278e-10, cumulative = 0.0355491
smoothSolver:  Solving for omega, Initial residual = 1.40803e-07, Final residual = 6.30454e-09, No Iterations 2
smoothSolver:  Solving for k, Initial residual = 4.17103e-07, Final residual = 3.64641e-08, No Iterations 3
ExecutionTime = 6.41 s  ClockTime = 7 s

scalarTransport execute: age
smoothSolver:  Solving for age, Initial residual = 0.000436187, Final residual = 4.18904e-05, No Iterations 14

Time = 567

smoothSolver:  Solving for Ux, Initial residual = 4.8009e-07, Final residual = 4.73445e-08, No Iterations 3
smoothSolver:  Solving for Uy, Initial residual = 5.1602e-07, Final residual = 3.50763e-08, No Iterations 4
GAMG:  Solving for p, Initial residual = 1.55516e-06, Final residual = 1.2746e-07, No Iterations 2
time step continuity errors : sum local = 5.23759e-07, global = 5.98862e-10, cumulative = 0.0355491
smoothSolver:  Solving for omega, Initial residual = 9.04056e-08, Final residual = 5.55357e-09, No Iterations 2
smoothSolver:  Solving for k, Initial residual = 4.00622e-07, Final residual = 3.46184e-08, No Iterations 3
ExecutionTime = 6.42 s  ClockTime = 7 s

scalarTransport execute: age
smoothSolver:  Solving for age, Initial residual = 0.000435243, Final residual = 4.1802e-05, No Iterations 14

Time = 568

smoothSolver:  Solving for Ux, Initial residual = 4.4203e-07, Final residual = 2.63379e-08, No Iterations 4
smoothSolver:  Solving for Uy, Initial residual = 4.70136e-07, Final residual = 3.41251e-08, No Iterations 4
GAMG:  Solving for p, Initial residual = 1.36243e-06, Final residual = 1.20563e-07, No Iterations 2
time step continuity errors : sum local = 4.95415e-07, global = 1.41012e-09, cumulative = 0.0355491
smoothSolver:  Solving for omega, Initial residual = 5.09502e-08, Final residual = 5.23966e-09, No Iterations 2
smoothSolver:  Solving for k, Initial residual = 3.96966e-07, Final residual = 3.33407e-08, No Iterations 3
ExecutionTime = 6.43 s  ClockTime = 7 s

scalarTransport execute: age
smoothSolver:  Solving for age, Initial residual = 0.000434305, Final residual = 4.17105e-05, No Iterations 14

Time = 569

smoothSolver:  Solving for Ux, Initial residual = 4.22699e-07, Final residual = 2.50682e-08, No Iterations 4
smoothSolver:  Solving for Uy, Initial residual = 4.4923e-07, Final residual = 3.34659e-08, No Iterations 4
GAMG:  Solving for p, Initial residual = 1.23257e-06, Final residual = 1.07468e-07, No Iterations 2
time step continuity errors : sum local = 4.41608e-07, global = 2.25581e-09, cumulative = 0.0355491
smoothSolver:  Solving for omega, Initial residual = 4.12828e-08, Final residual = 4.9568e-09, No Iterations 2
smoothSolver:  Solving for k, Initial residual = 3.90623e-07, Final residual = 3.19901e-08, No Iterations 3
ExecutionTime = 6.44 s  ClockTime = 7 s

scalarTransport execute: age
smoothSolver:  Solving for age, Initial residual = 0.00043339, Final residual = 4.16181e-05, No Iterations 14

Time = 570

smoothSolver:  Solving for Ux, Initial residual = 4.00384e-07, Final residual = 2.31599e-08, No Iterations 4
smoothSolver:  Solving for Uy, Initial residual = 4.31756e-07, Final residual = 3.25263e-08, No Iterations 4
GAMG:  Solving for p, Initial residual = 1.13622e-06, Final residual = 9.42865e-08, No Iterations 2
time step continuity errors : sum local = 3.87441e-07, global = 3.02774e-09, cumulative = 0.0355491
smoothSolver:  Solving for omega, Initial residual = 3.50875e-08, Final residual = 4.6236e-09, No Iterations 2
smoothSolver:  Solving for k, Initial residual = 3.81136e-07, Final residual = 3.06244e-08, No Iterations 3
ExecutionTime = 6.46 s  ClockTime = 7 s

scalarTransport execute: age
smoothSolver:  Solving for age, Initial residual = 0.00043247, Final residual = 4.15263e-05, No Iterations 14

Time = 571

smoothSolver:  Solving for Ux, Initial residual = 3.80216e-07, Final residual = 2.14655e-08, No Iterations 4
smoothSolver:  Solving for Uy, Initial residual = 4.1551e-07, Final residual = 3.11189e-08, No Iterations 4
GAMG:  Solving for p, Initial residual = 1.07927e-06, Final residual = 8.42909e-08, No Iterations 2
time step continuity errors : sum local = 3.46367e-07, global = 3.62667e-09, cumulative = 0.0355491
smoothSolver:  Solving for omega, Initial residual = 3.19677e-08, Final residual = 4.2804e-09, No Iterations 2
smoothSolver:  Solving for k, Initial residual = 3.68347e-07, Final residual = 2.91679e-08, No Iterations 3
ExecutionTime = 6.47 s  ClockTime = 7 s

scalarTransport execute: age
smoothSolver:  Solving for age, Initial residual = 0.000431563, Final residual = 4.14361e-05, No Iterations 14

Time = 572

smoothSolver:  Solving for Ux, Initial residual = 3.64524e-07, Final residual = 2.07181e-08, No Iterations 4
smoothSolver:  Solving for Uy, Initial residual = 4.01618e-07, Final residual = 2.99733e-08, No Iterations 4
GAMG:  Solving for p, Initial residual = 1.04099e-06, Final residual = 7.89881e-08, No Iterations 2
time step continuity errors : sum local = 3.24577e-07, global = 3.98909e-09, cumulative = 0.0355491
smoothSolver:  Solving for omega, Initial residual = 3.04149e-08, Final residual = 9.58296e-09, No Iterations 1
smoothSolver:  Solving for k, Initial residual = 3.59022e-07, Final residual = 2.77145e-08, No Iterations 3
ExecutionTime = 6.48 s  ClockTime = 7 s

scalarTransport execute: age
smoothSolver:  Solving for age, Initial residual = 0.000430666, Final residual = 4.13478e-05, No Iterations 14

Time = 573

smoothSolver:  Solving for Ux, Initial residual = 3.52572e-07, Final residual = 2.06495e-08, No Iterations 4
smoothSolver:  Solving for Uy, Initial residual = 3.90278e-07, Final residual = 2.93647e-08, No Iterations 4
GAMG:  Solving for p, Initial residual = 1.00615e-06, Final residual = 7.83993e-08, No Iterations 2
time step continuity errors : sum local = 3.22157e-07, global = 4.13194e-09, cumulative = 0.0355491
smoothSolver:  Solving for omega, Initial residual = 3.37007e-08, Final residual = 4.62105e-09, No Iterations 2
smoothSolver:  Solving for k, Initial residual = 3.48291e-07, Final residual = 2.6266e-08, No Iterations 3
ExecutionTime = 6.49 s  ClockTime = 7 s

scalarTransport execute: age
smoothSolver:  Solving for age, Initial residual = 0.000429772, Final residual = 4.12615e-05, No Iterations 14

Time = 574

smoothSolver:  Solving for Ux, Initial residual = 3.46001e-07, Final residual = 2.06191e-08, No Iterations 4
smoothSolver:  Solving for Uy, Initial residual = 3.82101e-07, Final residual = 2.90355e-08, No Iterations 4
GAMG:  Solving for p, Initial residual = 9.72869e-07, Final residual = 7.91088e-08, No Iterations 2
time step continuity errors : sum local = 3.25073e-07, global = 4.11235e-09, cumulative = 0.0355491
smoothSolver:  Solving for omega, Initial residual = 3.18426e-08, Final residual = 4.43451e-09, No Iterations 2
smoothSolver:  Solving for k, Initial residual = 3.41293e-07, Final residual = 2.49862e-08, No Iterations 3
ExecutionTime = 6.5 s  ClockTime = 7 s


SIMPLE solution converged in 574 iterations

scalarTransport execute: age
smoothSolver:  Solving for age, Initial residual = 0.000428878, Final residual = 4.11769e-05, No Iterations 14

End

