/*---------------------------------------------------------------------------*\
| =========                 |                                                 |
| \\      /  F ield         | OpenFOAM: The Open Source CFD Toolbox           |
|  \\    /   O peration     | Version:  v2012                                 |
|   \\  /    A nd           | Website:  www.openfoam.com                      |
|    \\/     M anipulation  |                                                 |
\*---------------------------------------------------------------------------*/
Build  : _7bdb509494-20201222 OPENFOAM=2012
Arch   : "LSB;label=32;scalar=64"
Exec   : simpleFoam
Date   : Feb 23 2023
Time   : 14:04:58
Host   : johnsDesktop
PID    : 4656
I/O    : uncollated
Case   : /home/john/of_runs/cases/dbl_0_17_2-00760_9
nProcs : 1
trapFpe: Floating point exception trapping enabled (FOAM_SIGFPE).
fileModificationChecking : Monitoring run-time modified files using timeStampMaster (fileModificationSkew 5, maxFileModificationPolls 20)
allowSystemOperations : Allowing user-supplied system call operations

// * * * * * * * * * * * * * * * * * * * * * * * * * * * * * * * * * * * * * //
Create time

Create mesh for time = 0


SIMPLE: convergence criteria
    field p	 tolerance 1e-06
    field U	 tolerance 1e-06
    field "(k|epsilon|omega|f|v2|age)"	 tolerance 1e-05

Reading field p

Reading field U

Reading/calculating face flux field phi

Selecting incompressible transport model Newtonian
Selecting turbulence model type RAS
Selecting RAS turbulence model kOmegaSST
Selecting patchDistMethod meshWave
RAS
{
    RASModel        kOmegaSST;
    turbulence      on;
    printCoeffs     on;
    alphaK1         0.85;
    alphaK2         1;
    alphaOmega1     0.5;
    alphaOmega2     0.856;
    gamma1          0.555556;
    gamma2          0.44;
    beta1           0.075;
    beta2           0.0828;
    betaStar        0.09;
    a1              0.31;
    b1              1;
    c1              10;
    F3              false;
    decayControl    false;
    kInf            0;
    omegaInf        0;
}

No MRF models present

No finite volume options present

Starting time loop

Selecting finite volume options type scalarSemiImplicitSource
    Source: unitySource
    - selecting all cells
    - selected 6598 cell(s) with volume 0.03183
Time = 1

smoothSolver:  Solving for Ux, Initial residual = 0, Final residual = 0, No Iterations 0
smoothSolver:  Solving for Uy, Initial residual = 1, Final residual = 0.0684379, No Iterations 2
GAMG:  Solving for p, Initial residual = 1, Final residual = 0.0899796, No Iterations 6
time step continuity errors : sum local = 0.00565376, global = -0.000889013, cumulative = -0.000889013
smoothSolver:  Solving for omega, Initial residual = 0.276746, Final residual = 0.013503, No Iterations 3
smoothSolver:  Solving for k, Initial residual = 1, Final residual = 0.0834925, No Iterations 3
ExecutionTime = 0.05 s  ClockTime = 0 s

scalarTransport execute: age
smoothSolver:  Solving for age, Initial residual = 1, Final residual = 0.0908097, No Iterations 5

Time = 2

smoothSolver:  Solving for Ux, Initial residual = 0.598153, Final residual = 0.0506096, No Iterations 6
smoothSolver:  Solving for Uy, Initial residual = 0.279022, Final residual = 0.0274653, No Iterations 5
GAMG:  Solving for p, Initial residual = 0.048903, Final residual = 0.00186741, No Iterations 4
time step continuity errors : sum local = 0.0214045, global = 0.00182517, cumulative = 0.000936156
smoothSolver:  Solving for omega, Initial residual = 0.265348, Final residual = 0.0263418, No Iterations 3
smoothSolver:  Solving for k, Initial residual = 0.621037, Final residual = 0.0579759, No Iterations 4
ExecutionTime = 0.06 s  ClockTime = 0 s

scalarTransport execute: age
smoothSolver:  Solving for age, Initial residual = 0.587317, Final residual = 0.0529306, No Iterations 7

Time = 3

smoothSolver:  Solving for Ux, Initial residual = 0.2278, Final residual = 0.0221046, No Iterations 5
smoothSolver:  Solving for Uy, Initial residual = 0.100815, Final residual = 0.00847319, No Iterations 5
GAMG:  Solving for p, Initial residual = 0.0556852, Final residual = 0.00454782, No Iterations 3
time step continuity errors : sum local = 0.0213689, global = 0.00206873, cumulative = 0.00300489
smoothSolver:  Solving for omega, Initial residual = 0.266402, Final residual = 0.0256132, No Iterations 4
smoothSolver:  Solving for k, Initial residual = 0.524292, Final residual = 0.0389723, No Iterations 5
ExecutionTime = 0.08 s  ClockTime = 0 s

scalarTransport execute: age
smoothSolver:  Solving for age, Initial residual = 0.378233, Final residual = 0.0341953, No Iterations 9

Time = 4

smoothSolver:  Solving for Ux, Initial residual = 0.113682, Final residual = 0.00982624, No Iterations 4
smoothSolver:  Solving for Uy, Initial residual = 0.0486205, Final residual = 0.00334273, No Iterations 5
GAMG:  Solving for p, Initial residual = 0.074681, Final residual = 0.00382919, No Iterations 3
time step continuity errors : sum local = 0.0108422, global = 0.000504767, cumulative = 0.00350966
smoothSolver:  Solving for omega, Initial residual = 0.155824, Final residual = 0.0107771, No Iterations 5
smoothSolver:  Solving for k, Initial residual = 0.4537, Final residual = 0.0380388, No Iterations 5
ExecutionTime = 0.09 s  ClockTime = 0 s

scalarTransport execute: age
smoothSolver:  Solving for age, Initial residual = 0.2718, Final residual = 0.0239814, No Iterations 8

Time = 5

smoothSolver:  Solving for Ux, Initial residual = 0.072845, Final residual = 0.00583644, No Iterations 5
smoothSolver:  Solving for Uy, Initial residual = 0.0315711, Final residual = 0.00206854, No Iterations 5
GAMG:  Solving for p, Initial residual = 0.0727315, Final residual = 0.00307482, No Iterations 2
time step continuity errors : sum local = 0.00743825, global = 0.000326777, cumulative = 0.00383643
smoothSolver:  Solving for omega, Initial residual = 0.107011, Final residual = 0.00815434, No Iterations 5
smoothSolver:  Solving for k, Initial residual = 0.367041, Final residual = 0.0332665, No Iterations 5
ExecutionTime = 0.1 s  ClockTime = 0 s

scalarTransport execute: age
smoothSolver:  Solving for age, Initial residual = 0.207859, Final residual = 0.0190252, No Iterations 9

Time = 6

smoothSolver:  Solving for Ux, Initial residual = 0.0546146, Final residual = 0.00361681, No Iterations 6
smoothSolver:  Solving for Uy, Initial residual = 0.0255265, Final residual = 0.00185947, No Iterations 5
GAMG:  Solving for p, Initial residual = 0.0577404, Final residual = 0.00329931, No Iterations 2
time step continuity errors : sum local = 0.00848089, global = 0.000152751, cumulative = 0.00398918
smoothSolver:  Solving for omega, Initial residual = 0.0836612, Final residual = 0.00680258, No Iterations 5
smoothSolver:  Solving for k, Initial residual = 0.292422, Final residual = 0.0281081, No Iterations 5
ExecutionTime = 0.12 s  ClockTime = 0 s

scalarTransport execute: age
smoothSolver:  Solving for age, Initial residual = 0.175982, Final residual = 0.0156704, No Iterations 10

Time = 7

smoothSolver:  Solving for Ux, Initial residual = 0.0471026, Final residual = 0.00316815, No Iterations 6
smoothSolver:  Solving for Uy, Initial residual = 0.0223556, Final residual = 0.00173292, No Iterations 5
GAMG:  Solving for p, Initial residual = 0.0480628, Final residual = 0.00382288, No Iterations 2
time step continuity errors : sum local = 0.00997727, global = -0.000397022, cumulative = 0.00359216
smoothSolver:  Solving for omega, Initial residual = 0.0645239, Final residual = 0.00559343, No Iterations 5
smoothSolver:  Solving for k, Initial residual = 0.241223, Final residual = 0.0153092, No Iterations 6
ExecutionTime = 0.13 s  ClockTime = 0 s

scalarTransport execute: age
smoothSolver:  Solving for age, Initial residual = 0.141332, Final residual = 0.0125167, No Iterations 11

Time = 8

smoothSolver:  Solving for Ux, Initial residual = 0.03919, Final residual = 0.00373197, No Iterations 5
smoothSolver:  Solving for Uy, Initial residual = 0.0204054, Final residual = 0.0016771, No Iterations 5
GAMG:  Solving for p, Initial residual = 0.0399326, Final residual = 0.00302256, No Iterations 2
time step continuity errors : sum local = 0.00830376, global = -0.000680443, cumulative = 0.00291172
smoothSolver:  Solving for omega, Initial residual = 0.0518229, Final residual = 0.00466127, No Iterations 5
smoothSolver:  Solving for k, Initial residual = 0.204939, Final residual = 0.0134893, No Iterations 6
ExecutionTime = 0.14 s  ClockTime = 0 s

scalarTransport execute: age
smoothSolver:  Solving for age, Initial residual = 0.12114, Final residual = 0.0112905, No Iterations 11

Time = 9

smoothSolver:  Solving for Ux, Initial residual = 0.0352759, Final residual = 0.00333637, No Iterations 5
smoothSolver:  Solving for Uy, Initial residual = 0.0190833, Final residual = 0.00160294, No Iterations 5
GAMG:  Solving for p, Initial residual = 0.0338418, Final residual = 0.0019505, No Iterations 2
time step continuity errors : sum local = 0.00558984, global = -0.000580303, cumulative = 0.00233142
smoothSolver:  Solving for omega, Initial residual = 0.0427535, Final residual = 0.00395888, No Iterations 5
smoothSolver:  Solving for k, Initial residual = 0.177505, Final residual = 0.0120427, No Iterations 6
ExecutionTime = 0.15 s  ClockTime = 0 s

scalarTransport execute: age
smoothSolver:  Solving for age, Initial residual = 0.106671, Final residual = 0.0103679, No Iterations 11

Time = 10

smoothSolver:  Solving for Ux, Initial residual = 0.0339457, Final residual = 0.00334393, No Iterations 5
smoothSolver:  Solving for Uy, Initial residual = 0.0182763, Final residual = 0.00155862, No Iterations 5
GAMG:  Solving for p, Initial residual = 0.0291461, Final residual = 0.000817681, No Iterations 2
time step continuity errors : sum local = 0.00239842, global = -0.000520092, cumulative = 0.00181133
smoothSolver:  Solving for omega, Initial residual = 0.0356635, Final residual = 0.00339554, No Iterations 5
smoothSolver:  Solving for k, Initial residual = 0.156075, Final residual = 0.0108557, No Iterations 6
ExecutionTime = 0.17 s  ClockTime = 0 s

scalarTransport execute: age
smoothSolver:  Solving for age, Initial residual = 0.0943991, Final residual = 0.00925728, No Iterations 11

Time = 11

smoothSolver:  Solving for Ux, Initial residual = 0.0311476, Final residual = 0.00205789, No Iterations 6
smoothSolver:  Solving for Uy, Initial residual = 0.0175486, Final residual = 0.00156426, No Iterations 5
GAMG:  Solving for p, Initial residual = 0.0261096, Final residual = 0.000862616, No Iterations 2
time step continuity errors : sum local = 0.00253359, global = -0.000416629, cumulative = 0.0013947
smoothSolver:  Solving for omega, Initial residual = 0.0301305, Final residual = 0.00292999, No Iterations 5
smoothSolver:  Solving for k, Initial residual = 0.138869, Final residual = 0.00985648, No Iterations 6
ExecutionTime = 0.18 s  ClockTime = 0 s

scalarTransport execute: age
smoothSolver:  Solving for age, Initial residual = 0.08269, Final residual = 0.00704349, No Iterations 12

Time = 12

smoothSolver:  Solving for Ux, Initial residual = 0.0290609, Final residual = 0.00195034, No Iterations 6
smoothSolver:  Solving for Uy, Initial residual = 0.0170721, Final residual = 0.00157383, No Iterations 5
GAMG:  Solving for p, Initial residual = 0.0241334, Final residual = 0.000879878, No Iterations 2
time step continuity errors : sum local = 0.00257665, global = -0.000287693, cumulative = 0.001107
smoothSolver:  Solving for omega, Initial residual = 0.0257786, Final residual = 0.00254952, No Iterations 5
smoothSolver:  Solving for k, Initial residual = 0.124858, Final residual = 0.00901297, No Iterations 6
ExecutionTime = 0.19 s  ClockTime = 0 s

scalarTransport execute: age
smoothSolver:  Solving for age, Initial residual = 0.0719862, Final residual = 0.00620086, No Iterations 12

Time = 13

smoothSolver:  Solving for Ux, Initial residual = 0.0276316, Final residual = 0.00187128, No Iterations 6
smoothSolver:  Solving for Uy, Initial residual = 0.0167246, Final residual = 0.00157996, No Iterations 5
GAMG:  Solving for p, Initial residual = 0.0225916, Final residual = 0.000852811, No Iterations 2
time step continuity errors : sum local = 0.00248396, global = -0.000133355, cumulative = 0.000973649
smoothSolver:  Solving for omega, Initial residual = 0.0222957, Final residual = 0.00142691, No Iterations 6
smoothSolver:  Solving for k, Initial residual = 0.112905, Final residual = 0.00827055, No Iterations 6
ExecutionTime = 0.2 s  ClockTime = 0 s

scalarTransport execute: age
smoothSolver:  Solving for age, Initial residual = 0.0627953, Final residual = 0.00547017, No Iterations 12

Time = 14

smoothSolver:  Solving for Ux, Initial residual = 0.0264816, Final residual = 0.00180181, No Iterations 6
smoothSolver:  Solving for Uy, Initial residual = 0.0163603, Final residual = 0.0015745, No Iterations 5
GAMG:  Solving for p, Initial residual = 0.0215217, Final residual = 0.000821634, No Iterations 2
time step continuity errors : sum local = 0.00237852, global = 1.72755e-05, cumulative = 0.000990925
smoothSolver:  Solving for omega, Initial residual = 0.0192727, Final residual = 0.00125282, No Iterations 6
smoothSolver:  Solving for k, Initial residual = 0.102694, Final residual = 0.00762111, No Iterations 6
ExecutionTime = 0.22 s  ClockTime = 0 s

scalarTransport execute: age
smoothSolver:  Solving for age, Initial residual = 0.0545543, Final residual = 0.00484809, No Iterations 12

Time = 15

smoothSolver:  Solving for Ux, Initial residual = 0.0255232, Final residual = 0.00174042, No Iterations 6
smoothSolver:  Solving for Uy, Initial residual = 0.0160729, Final residual = 0.00156038, No Iterations 5
GAMG:  Solving for p, Initial residual = 0.0206034, Final residual = 0.000798948, No Iterations 2
time step continuity errors : sum local = 0.00229869, global = 0.000145641, cumulative = 0.00113657
smoothSolver:  Solving for omega, Initial residual = 0.0168287, Final residual = 0.00110762, No Iterations 6
smoothSolver:  Solving for k, Initial residual = 0.0940718, Final residual = 0.00705801, No Iterations 6
ExecutionTime = 0.23 s  ClockTime = 0 s

scalarTransport execute: age
smoothSolver:  Solving for age, Initial residual = 0.0472337, Final residual = 0.00426532, No Iterations 12

Time = 16

smoothSolver:  Solving for Ux, Initial residual = 0.0246773, Final residual = 0.00168812, No Iterations 6
smoothSolver:  Solving for Uy, Initial residual = 0.015753, Final residual = 0.00153866, No Iterations 5
GAMG:  Solving for p, Initial residual = 0.0197936, Final residual = 0.00076684, No Iterations 2
time step continuity errors : sum local = 0.00219189, global = 0.000249862, cumulative = 0.00138643
smoothSolver:  Solving for omega, Initial residual = 0.0148312, Final residual = 0.000985617, No Iterations 6
smoothSolver:  Solving for k, Initial residual = 0.0866827, Final residual = 0.00656429, No Iterations 6
ExecutionTime = 0.24 s  ClockTime = 0 s

scalarTransport execute: age
smoothSolver:  Solving for age, Initial residual = 0.0409421, Final residual = 0.00373099, No Iterations 12

Time = 17

smoothSolver:  Solving for Ux, Initial residual = 0.0239487, Final residual = 0.00164398, No Iterations 6
smoothSolver:  Solving for Uy, Initial residual = 0.015456, Final residual = 0.00151187, No Iterations 5
GAMG:  Solving for p, Initial residual = 0.0190508, Final residual = 0.000736254, No Iterations 2
time step continuity errors : sum local = 0.0020898, global = 0.000328105, cumulative = 0.00171453
smoothSolver:  Solving for omega, Initial residual = 0.0132, Final residual = 0.000882294, No Iterations 6
smoothSolver:  Solving for k, Initial residual = 0.0802889, Final residual = 0.0061285, No Iterations 6
ExecutionTime = 0.25 s  ClockTime = 0 s

scalarTransport execute: age
smoothSolver:  Solving for age, Initial residual = 0.035623, Final residual = 0.0032534, No Iterations 12

Time = 18

smoothSolver:  Solving for Ux, Initial residual = 0.0233183, Final residual = 0.00160658, No Iterations 6
smoothSolver:  Solving for Uy, Initial residual = 0.0151429, Final residual = 0.0014808, No Iterations 5
GAMG:  Solving for p, Initial residual = 0.0184168, Final residual = 0.000717812, No Iterations 2
time step continuity errors : sum local = 0.00202345, global = 0.00037893, cumulative = 0.00209346
smoothSolver:  Solving for omega, Initial residual = 0.011811, Final residual = 0.00079437, No Iterations 6
smoothSolver:  Solving for k, Initial residual = 0.0746893, Final residual = 0.00574034, No Iterations 6
ExecutionTime = 0.27 s  ClockTime = 0 s

scalarTransport execute: age
smoothSolver:  Solving for age, Initial residual = 0.031208, Final residual = 0.00283428, No Iterations 12

Time = 19

smoothSolver:  Solving for Ux, Initial residual = 0.0227274, Final residual = 0.00157428, No Iterations 6
smoothSolver:  Solving for Uy, Initial residual = 0.0147794, Final residual = 0.00144669, No Iterations 5
GAMG:  Solving for p, Initial residual = 0.0177908, Final residual = 0.000700221, No Iterations 2
time step continuity errors : sum local = 0.00196028, global = 0.000402716, cumulative = 0.00249618
smoothSolver:  Solving for omega, Initial residual = 0.0106287, Final residual = 0.000718909, No Iterations 6
smoothSolver:  Solving for k, Initial residual = 0.0697451, Final residual = 0.00539244, No Iterations 6
ExecutionTime = 0.28 s  ClockTime = 0 s

scalarTransport execute: age
smoothSolver:  Solving for age, Initial residual = 0.0276669, Final residual = 0.00246396, No Iterations 12

Time = 20

smoothSolver:  Solving for Ux, Initial residual = 0.0222083, Final residual = 0.0015454, No Iterations 6
smoothSolver:  Solving for Uy, Initial residual = 0.0143934, Final residual = 0.00141062, No Iterations 5
GAMG:  Solving for p, Initial residual = 0.0170892, Final residual = 0.000676875, No Iterations 2
time step continuity errors : sum local = 0.00188341, global = 0.000402119, cumulative = 0.0028983
smoothSolver:  Solving for omega, Initial residual = 0.00962908, Final residual = 0.000653439, No Iterations 6
smoothSolver:  Solving for k, Initial residual = 0.0653738, Final residual = 0.00508047, No Iterations 6
ExecutionTime = 0.29 s  ClockTime = 0 s

scalarTransport execute: age
smoothSolver:  Solving for age, Initial residual = 0.0246485, Final residual = 0.00212645, No Iterations 12

Time = 21

smoothSolver:  Solving for Ux, Initial residual = 0.021756, Final residual = 0.00151996, No Iterations 6
smoothSolver:  Solving for Uy, Initial residual = 0.013969, Final residual = 0.001374, No Iterations 5
GAMG:  Solving for p, Initial residual = 0.0163409, Final residual = 0.000647306, No Iterations 2
time step continuity errors : sum local = 0.0017917, global = 0.000384163, cumulative = 0.00328246
smoothSolver:  Solving for omega, Initial residual = 0.00875966, Final residual = 0.000596523, No Iterations 6
smoothSolver:  Solving for k, Initial residual = 0.0614679, Final residual = 0.00479869, No Iterations 6
ExecutionTime = 0.31 s  ClockTime = 0 s

scalarTransport execute: age
smoothSolver:  Solving for age, Initial residual = 0.0221542, Final residual = 0.0021506, No Iterations 11

Time = 22

smoothSolver:  Solving for Ux, Initial residual = 0.0213579, Final residual = 0.00149718, No Iterations 6
smoothSolver:  Solving for Uy, Initial residual = 0.0135312, Final residual = 0.00133841, No Iterations 5
GAMG:  Solving for p, Initial residual = 0.0155393, Final residual = 0.000615293, No Iterations 2
time step continuity errors : sum local = 0.00169453, global = 0.000356149, cumulative = 0.00363861
smoothSolver:  Solving for omega, Initial residual = 0.00800826, Final residual = 0.000546684, No Iterations 6
smoothSolver:  Solving for k, Initial residual = 0.0579595, Final residual = 0.00454285, No Iterations 6
ExecutionTime = 0.32 s  ClockTime = 0 s

scalarTransport execute: age
smoothSolver:  Solving for age, Initial residual = 0.0201322, Final residual = 0.00185119, No Iterations 11

Time = 23

smoothSolver:  Solving for Ux, Initial residual = 0.0209815, Final residual = 0.00147823, No Iterations 6
smoothSolver:  Solving for Uy, Initial residual = 0.0131281, Final residual = 0.00130369, No Iterations 5
GAMG:  Solving for p, Initial residual = 0.014712, Final residual = 0.000583377, No Iterations 2
time step continuity errors : sum local = 0.0015972, global = 0.000324097, cumulative = 0.00396271
smoothSolver:  Solving for omega, Initial residual = 0.00734947, Final residual = 0.000502745, No Iterations 6
smoothSolver:  Solving for k, Initial residual = 0.0547944, Final residual = 0.00430982, No Iterations 6
ExecutionTime = 0.33 s  ClockTime = 0 s

scalarTransport execute: age
smoothSolver:  Solving for age, Initial residual = 0.0183905, Final residual = 0.00158467, No Iterations 11

Time = 24

smoothSolver:  Solving for Ux, Initial residual = 0.0206601, Final residual = 0.00146345, No Iterations 6
smoothSolver:  Solving for Uy, Initial residual = 0.0127455, Final residual = 0.00127026, No Iterations 5
GAMG:  Solving for p, Initial residual = 0.0139771, Final residual = 0.000553963, No Iterations 2
time step continuity errors : sum local = 0.00150816, global = 0.000292452, cumulative = 0.00425516
smoothSolver:  Solving for omega, Initial residual = 0.00676728, Final residual = 0.000463702, No Iterations 6
smoothSolver:  Solving for k, Initial residual = 0.0519236, Final residual = 0.00409649, No Iterations 6
ExecutionTime = 0.34 s  ClockTime = 0 s

scalarTransport execute: age
smoothSolver:  Solving for age, Initial residual = 0.0169194, Final residual = 0.0016134, No Iterations 10

Time = 25

smoothSolver:  Solving for Ux, Initial residual = 0.0203702, Final residual = 0.00145221, No Iterations 6
smoothSolver:  Solving for Uy, Initial residual = 0.0123975, Final residual = 0.00123705, No Iterations 5
GAMG:  Solving for p, Initial residual = 0.0136454, Final residual = 0.000528517, No Iterations 2
time step continuity errors : sum local = 0.00143148, global = 0.000263214, cumulative = 0.00451837
smoothSolver:  Solving for omega, Initial residual = 0.0062594, Final residual = 0.000429138, No Iterations 6
smoothSolver:  Solving for k, Initial residual = 0.0493058, Final residual = 0.00390058, No Iterations 6
ExecutionTime = 0.36 s  ClockTime = 0 s

scalarTransport execute: age
smoothSolver:  Solving for age, Initial residual = 0.0157844, Final residual = 0.00141618, No Iterations 10

Time = 26

smoothSolver:  Solving for Ux, Initial residual = 0.0201218, Final residual = 0.00144429, No Iterations 6
smoothSolver:  Solving for Uy, Initial residual = 0.0120966, Final residual = 0.00120341, No Iterations 5
GAMG:  Solving for p, Initial residual = 0.0136202, Final residual = 0.000509756, No Iterations 2
time step continuity errors : sum local = 0.00137307, global = 0.000237203, cumulative = 0.00475558
smoothSolver:  Solving for omega, Initial residual = 0.00580994, Final residual = 0.000398279, No Iterations 6
smoothSolver:  Solving for k, Initial residual = 0.0469024, Final residual = 0.00371932, No Iterations 6
ExecutionTime = 0.37 s  ClockTime = 0 s

scalarTransport execute: age
smoothSolver:  Solving for age, Initial residual = 0.0149554, Final residual = 0.00127598, No Iterations 10

Time = 27

smoothSolver:  Solving for Ux, Initial residual = 0.0199408, Final residual = 0.00143846, No Iterations 6
smoothSolver:  Solving for Uy, Initial residual = 0.0118093, Final residual = 0.00116999, No Iterations 5
GAMG:  Solving for p, Initial residual = 0.0137018, Final residual = 0.000497795, No Iterations 2
time step continuity errors : sum local = 0.0013355, global = 0.000216083, cumulative = 0.00497166
smoothSolver:  Solving for omega, Initial residual = 0.00541392, Final residual = 0.000370518, No Iterations 6
smoothSolver:  Solving for k, Initial residual = 0.0446852, Final residual = 0.00355119, No Iterations 6
ExecutionTime = 0.38 s  ClockTime = 0 s

scalarTransport execute: age
smoothSolver:  Solving for age, Initial residual = 0.0144001, Final residual = 0.00139158, No Iterations 9

Time = 28

smoothSolver:  Solving for Ux, Initial residual = 0.0198587, Final residual = 0.00143508, No Iterations 6
smoothSolver:  Solving for Uy, Initial residual = 0.0115044, Final residual = 0.00113506, No Iterations 5
GAMG:  Solving for p, Initial residual = 0.0136708, Final residual = 0.000500112, No Iterations 2
time step continuity errors : sum local = 0.00133257, global = 0.000197968, cumulative = 0.00516963
smoothSolver:  Solving for omega, Initial residual = 0.00505943, Final residual = 0.000345398, No Iterations 6
smoothSolver:  Solving for k, Initial residual = 0.042637, Final residual = 0.00339507, No Iterations 6
ExecutionTime = 0.39 s  ClockTime = 0 s

scalarTransport execute: age
smoothSolver:  Solving for age, Initial residual = 0.013947, Final residual = 0.00133656, No Iterations 9

Time = 29

smoothSolver:  Solving for Ux, Initial residual = 0.0198351, Final residual = 0.00143308, No Iterations 6
smoothSolver:  Solving for Uy, Initial residual = 0.0111858, Final residual = 0.00109874, No Iterations 5
GAMG:  Solving for p, Initial residual = 0.0135804, Final residual = 0.000504504, No Iterations 2
time step continuity errors : sum local = 0.00133858, global = 0.000184269, cumulative = 0.0053539
smoothSolver:  Solving for omega, Initial residual = 0.0047392, Final residual = 0.000322611, No Iterations 6
smoothSolver:  Solving for k, Initial residual = 0.0407339, Final residual = 0.00324947, No Iterations 6
ExecutionTime = 0.41 s  ClockTime = 0 s

scalarTransport execute: age
smoothSolver:  Solving for age, Initial residual = 0.0137051, Final residual = 0.00132034, No Iterations 9

Time = 30

smoothSolver:  Solving for Ux, Initial residual = 0.0198439, Final residual = 0.00143224, No Iterations 6
smoothSolver:  Solving for Uy, Initial residual = 0.0108418, Final residual = 0.00106077, No Iterations 5
GAMG:  Solving for p, Initial residual = 0.0133913, Final residual = 0.000501768, No Iterations 2
time step continuity errors : sum local = 0.00132733, global = 0.000173634, cumulative = 0.00552753
smoothSolver:  Solving for omega, Initial residual = 0.00444621, Final residual = 0.000301855, No Iterations 6
smoothSolver:  Solving for k, Initial residual = 0.038962, Final residual = 0.00311356, No Iterations 6
ExecutionTime = 0.42 s  ClockTime = 0 s

scalarTransport execute: age
smoothSolver:  Solving for age, Initial residual = 0.0136141, Final residual = 0.00133794, No Iterations 9

Time = 31

smoothSolver:  Solving for Ux, Initial residual = 0.0198796, Final residual = 0.00143247, No Iterations 6
smoothSolver:  Solving for Uy, Initial residual = 0.010474, Final residual = 0.00102144, No Iterations 5
GAMG:  Solving for p, Initial residual = 0.0130353, Final residual = 0.000494641, No Iterations 2
time step continuity errors : sum local = 0.00130694, global = 0.000164939, cumulative = 0.00569247
smoothSolver:  Solving for omega, Initial residual = 0.00417964, Final residual = 0.000282896, No Iterations 6
smoothSolver:  Solving for k, Initial residual = 0.0373091, Final residual = 0.00298649, No Iterations 6
ExecutionTime = 0.43 s  ClockTime = 0 s

scalarTransport execute: age
smoothSolver:  Solving for age, Initial residual = 0.0136829, Final residual = 0.00119918, No Iterations 10

Time = 32

smoothSolver:  Solving for Ux, Initial residual = 0.0199277, Final residual = 0.00143356, No Iterations 6
smoothSolver:  Solving for Uy, Initial residual = 0.0100752, Final residual = 0.00098169, No Iterations 5
GAMG:  Solving for p, Initial residual = 0.0124981, Final residual = 0.000479246, No Iterations 2
time step continuity errors : sum local = 0.00126492, global = 0.000157271, cumulative = 0.00584974
smoothSolver:  Solving for omega, Initial residual = 0.00393953, Final residual = 0.00026552, No Iterations 6
smoothSolver:  Solving for k, Initial residual = 0.0357631, Final residual = 0.00286748, No Iterations 6
ExecutionTime = 0.44 s  ClockTime = 0 s

scalarTransport execute: age
smoothSolver:  Solving for age, Initial residual = 0.013873, Final residual = 0.0012613, No Iterations 10

Time = 33

smoothSolver:  Solving for Ux, Initial residual = 0.0199564, Final residual = 0.00143504, No Iterations 6
smoothSolver:  Solving for Uy, Initial residual = 0.00966651, Final residual = 0.000942676, No Iterations 5
GAMG:  Solving for p, Initial residual = 0.0120262, Final residual = 0.000459939, No Iterations 2
time step continuity errors : sum local = 0.00121421, global = 0.000150604, cumulative = 0.00600034
smoothSolver:  Solving for omega, Initial residual = 0.00371886, Final residual = 0.00024951, No Iterations 6
smoothSolver:  Solving for k, Initial residual = 0.034315, Final residual = 0.00275606, No Iterations 6
ExecutionTime = 0.46 s  ClockTime = 0 s

scalarTransport execute: age
smoothSolver:  Solving for age, Initial residual = 0.0142658, Final residual = 0.00134222, No Iterations 10

Time = 34

smoothSolver:  Solving for Ux, Initial residual = 0.0199557, Final residual = 0.00143677, No Iterations 6
smoothSolver:  Solving for Uy, Initial residual = 0.00926553, Final residual = 0.000906164, No Iterations 5
GAMG:  Solving for p, Initial residual = 0.0115247, Final residual = 0.00043974, No Iterations 2
time step continuity errors : sum local = 0.00115967, global = 0.000140772, cumulative = 0.00614112
smoothSolver:  Solving for omega, Initial residual = 0.00351474, Final residual = 0.000234685, No Iterations 6
smoothSolver:  Solving for k, Initial residual = 0.0329573, Final residual = 0.00265177, No Iterations 6
ExecutionTime = 0.47 s  ClockTime = 0 s

scalarTransport execute: age
smoothSolver:  Solving for age, Initial residual = 0.0146203, Final residual = 0.00142143, No Iterations 10

Time = 35

smoothSolver:  Solving for Ux, Initial residual = 0.0199345, Final residual = 0.00143785, No Iterations 6
smoothSolver:  Solving for Uy, Initial residual = 0.00890528, Final residual = 0.000872846, No Iterations 5
GAMG:  Solving for p, Initial residual = 0.0112291, Final residual = 0.000432327, No Iterations 2
time step continuity errors : sum local = 0.00113998, global = 0.000133625, cumulative = 0.00627474
smoothSolver:  Solving for omega, Initial residual = 0.00332573, Final residual = 0.00022101, No Iterations 6
smoothSolver:  Solving for k, Initial residual = 0.0316882, Final residual = 0.00255415, No Iterations 6
ExecutionTime = 0.48 s  ClockTime = 0 s

scalarTransport execute: age
smoothSolver:  Solving for age, Initial residual = 0.0150214, Final residual = 0.00149435, No Iterations 10

Time = 36

smoothSolver:  Solving for Ux, Initial residual = 0.0198668, Final residual = 0.00143656, No Iterations 6
smoothSolver:  Solving for Uy, Initial residual = 0.00858305, Final residual = 0.000843033, No Iterations 5
GAMG:  Solving for p, Initial residual = 0.0110638, Final residual = 0.000439466, No Iterations 2
time step continuity errors : sum local = 0.00115802, global = 0.000127258, cumulative = 0.006402
smoothSolver:  Solving for omega, Initial residual = 0.00315227, Final residual = 0.00020832, No Iterations 6
smoothSolver:  Solving for k, Initial residual = 0.0305016, Final residual = 0.00246282, No Iterations 6
ExecutionTime = 0.49 s  ClockTime = 0 s

scalarTransport execute: age
smoothSolver:  Solving for age, Initial residual = 0.0153959, Final residual = 0.00134635, No Iterations 11

Time = 37

smoothSolver:  Solving for Ux, Initial residual = 0.0198258, Final residual = 0.00143308, No Iterations 6
smoothSolver:  Solving for Uy, Initial residual = 0.008296, Final residual = 0.00081722, No Iterations 5
GAMG:  Solving for p, Initial residual = 0.0108768, Final residual = 0.000457807, No Iterations 2
time step continuity errors : sum local = 0.00120414, global = 0.000122103, cumulative = 0.0065241
smoothSolver:  Solving for omega, Initial residual = 0.0029902, Final residual = 0.00019652, No Iterations 6
smoothSolver:  Solving for k, Initial residual = 0.029396, Final residual = 0.00237722, No Iterations 6
ExecutionTime = 0.51 s  ClockTime = 0 s

scalarTransport execute: age
smoothSolver:  Solving for age, Initial residual = 0.0156562, Final residual = 0.00139146, No Iterations 11

Time = 38

smoothSolver:  Solving for Ux, Initial residual = 0.0197717, Final residual = 0.00142746, No Iterations 6
smoothSolver:  Solving for Uy, Initial residual = 0.00803538, Final residual = 0.000795869, No Iterations 5
GAMG:  Solving for p, Initial residual = 0.0107735, Final residual = 0.000481709, No Iterations 2
time step continuity errors : sum local = 0.00126611, global = 0.000119757, cumulative = 0.00664386
smoothSolver:  Solving for omega, Initial residual = 0.00284028, Final residual = 0.000185518, No Iterations 6
smoothSolver:  Solving for k, Initial residual = 0.0283646, Final residual = 0.00229695, No Iterations 6
ExecutionTime = 0.52 s  ClockTime = 0 s

scalarTransport execute: age
smoothSolver:  Solving for age, Initial residual = 0.0158478, Final residual = 0.00143673, No Iterations 11

Time = 39

smoothSolver:  Solving for Ux, Initial residual = 0.0196965, Final residual = 0.00141974, No Iterations 6
smoothSolver:  Solving for Uy, Initial residual = 0.00782267, Final residual = 0.000778906, No Iterations 5
GAMG:  Solving for p, Initial residual = 0.0105528, Final residual = 0.000504041, No Iterations 2
time step continuity errors : sum local = 0.00132066, global = 0.000121947, cumulative = 0.00676581
smoothSolver:  Solving for omega, Initial residual = 0.00270104, Final residual = 0.000269727, No Iterations 5
smoothSolver:  Solving for k, Initial residual = 0.0274206, Final residual = 0.00222294, No Iterations 6
ExecutionTime = 0.53 s  ClockTime = 0 s

scalarTransport execute: age
smoothSolver:  Solving for age, Initial residual = 0.0160208, Final residual = 0.00148839, No Iterations 11

Time = 40

smoothSolver:  Solving for Ux, Initial residual = 0.0196017, Final residual = 0.00141012, No Iterations 6
smoothSolver:  Solving for Uy, Initial residual = 0.00766139, Final residual = 0.000498647, No Iterations 6
GAMG:  Solving for p, Initial residual = 0.010416, Final residual = 0.000521593, No Iterations 2
time step continuity errors : sum local = 0.00136406, global = 0.000127718, cumulative = 0.00689353
smoothSolver:  Solving for omega, Initial residual = 0.00258302, Final residual = 0.000256075, No Iterations 5
smoothSolver:  Solving for k, Initial residual = 0.0265503, Final residual = 0.00215406, No Iterations 6
ExecutionTime = 0.55 s  ClockTime = 0 s

scalarTransport execute: age
smoothSolver:  Solving for age, Initial residual = 0.0162234, Final residual = 0.00153356, No Iterations 11

Time = 41

smoothSolver:  Solving for Ux, Initial residual = 0.0194947, Final residual = 0.00139933, No Iterations 6
smoothSolver:  Solving for Uy, Initial residual = 0.00746042, Final residual = 0.000488077, No Iterations 6
GAMG:  Solving for p, Initial residual = 0.0103119, Final residual = 0.000545935, No Iterations 2
time step continuity errors : sum local = 0.00142685, global = 0.000135422, cumulative = 0.00702895
smoothSolver:  Solving for omega, Initial residual = 0.00247492, Final residual = 0.000243202, No Iterations 5
smoothSolver:  Solving for k, Initial residual = 0.0257312, Final residual = 0.00208877, No Iterations 6
ExecutionTime = 0.56 s  ClockTime = 0 s

scalarTransport execute: age
smoothSolver:  Solving for age, Initial residual = 0.0163456, Final residual = 0.00156498, No Iterations 11

Time = 42

smoothSolver:  Solving for Ux, Initial residual = 0.0193623, Final residual = 0.00138775, No Iterations 6
smoothSolver:  Solving for Uy, Initial residual = 0.00732042, Final residual = 0.000482016, No Iterations 6
GAMG:  Solving for p, Initial residual = 0.0102623, Final residual = 0.000573638, No Iterations 2
time step continuity errors : sum local = 0.001499, global = 0.000143958, cumulative = 0.00717291
smoothSolver:  Solving for omega, Initial residual = 0.00237223, Final residual = 0.000231027, No Iterations 5
smoothSolver:  Solving for k, Initial residual = 0.0249621, Final residual = 0.00202694, No Iterations 6
ExecutionTime = 0.57 s  ClockTime = 0 s

scalarTransport execute: age
smoothSolver:  Solving for age, Initial residual = 0.0164495, Final residual = 0.00157782, No Iterations 11

Time = 43

smoothSolver:  Solving for Ux, Initial residual = 0.0192209, Final residual = 0.00137594, No Iterations 6
smoothSolver:  Solving for Uy, Initial residual = 0.00725242, Final residual = 0.000481568, No Iterations 6
GAMG:  Solving for p, Initial residual = 0.010236, Final residual = 0.000599253, No Iterations 2
time step continuity errors : sum local = 0.00156521, global = 0.000152319, cumulative = 0.00732523
smoothSolver:  Solving for omega, Initial residual = 0.00227398, Final residual = 0.000219483, No Iterations 5
smoothSolver:  Solving for k, Initial residual = 0.0242381, Final residual = 0.00196845, No Iterations 6
ExecutionTime = 0.58 s  ClockTime = 0 s

scalarTransport execute: age
smoothSolver:  Solving for age, Initial residual = 0.0163557, Final residual = 0.00156738, No Iterations 11

Time = 44

smoothSolver:  Solving for Ux, Initial residual = 0.0190656, Final residual = 0.00136429, No Iterations 6
smoothSolver:  Solving for Uy, Initial residual = 0.00723495, Final residual = 0.000486172, No Iterations 6
GAMG:  Solving for p, Initial residual = 0.00998795, Final residual = 0.000608319, No Iterations 2
time step continuity errors : sum local = 0.00158333, global = 0.000160263, cumulative = 0.00748549
smoothSolver:  Solving for omega, Initial residual = 0.0021825, Final residual = 0.000208573, No Iterations 5
smoothSolver:  Solving for k, Initial residual = 0.0235558, Final residual = 0.00191309, No Iterations 6
ExecutionTime = 0.6 s  ClockTime = 0 s

scalarTransport execute: age
smoothSolver:  Solving for age, Initial residual = 0.0161642, Final residual = 0.00155719, No Iterations 11

Time = 45

smoothSolver:  Solving for Ux, Initial residual = 0.0188969, Final residual = 0.00135293, No Iterations 6
smoothSolver:  Solving for Uy, Initial residual = 0.00727091, Final residual = 0.000494691, No Iterations 6
GAMG:  Solving for p, Initial residual = 0.0098394, Final residual = 0.000616461, No Iterations 2
time step continuity errors : sum local = 0.00160074, global = 0.000166964, cumulative = 0.00765245
smoothSolver:  Solving for omega, Initial residual = 0.00209017, Final residual = 0.000198398, No Iterations 5
smoothSolver:  Solving for k, Initial residual = 0.0229098, Final residual = 0.00186051, No Iterations 6
ExecutionTime = 0.61 s  ClockTime = 0 s

scalarTransport execute: age
smoothSolver:  Solving for age, Initial residual = 0.0159992, Final residual = 0.00156899, No Iterations 11

Time = 46

smoothSolver:  Solving for Ux, Initial residual = 0.0187215, Final residual = 0.00134133, No Iterations 6
smoothSolver:  Solving for Uy, Initial residual = 0.00733237, Final residual = 0.000505527, No Iterations 6
GAMG:  Solving for p, Initial residual = 0.00968267, Final residual = 0.000625566, No Iterations 2
time step continuity errors : sum local = 0.00162132, global = 0.000172284, cumulative = 0.00782474
smoothSolver:  Solving for omega, Initial residual = 0.00200087, Final residual = 0.000188878, No Iterations 5
smoothSolver:  Solving for k, Initial residual = 0.0222956, Final residual = 0.00181045, No Iterations 6
ExecutionTime = 0.62 s  ClockTime = 0 s

scalarTransport execute: age
smoothSolver:  Solving for age, Initial residual = 0.0159149, Final residual = 0.0014163, No Iterations 12

Time = 47

smoothSolver:  Solving for Ux, Initial residual = 0.0185322, Final residual = 0.00132923, No Iterations 6
smoothSolver:  Solving for Uy, Initial residual = 0.00742015, Final residual = 0.000518101, No Iterations 6
GAMG:  Solving for p, Initial residual = 0.00952395, Final residual = 0.000632852, No Iterations 2
time step continuity errors : sum local = 0.00163763, global = 0.000175383, cumulative = 0.00800012
smoothSolver:  Solving for omega, Initial residual = 0.00192067, Final residual = 0.000179991, No Iterations 5
smoothSolver:  Solving for k, Initial residual = 0.0217121, Final residual = 0.0017628, No Iterations 6
ExecutionTime = 0.64 s  ClockTime = 0 s

scalarTransport execute: age
smoothSolver:  Solving for age, Initial residual = 0.0158574, Final residual = 0.00145976, No Iterations 12

Time = 48

smoothSolver:  Solving for Ux, Initial residual = 0.0183329, Final residual = 0.00131702, No Iterations 6
smoothSolver:  Solving for Uy, Initial residual = 0.00752556, Final residual = 0.000531714, No Iterations 6
GAMG:  Solving for p, Initial residual = 0.00935253, Final residual = 0.000644534, No Iterations 2
time step continuity errors : sum local = 0.00166553, global = 0.00017754, cumulative = 0.00817766
smoothSolver:  Solving for omega, Initial residual = 0.00184108, Final residual = 0.000171573, No Iterations 5
smoothSolver:  Solving for k, Initial residual = 0.0211589, Final residual = 0.00171732, No Iterations 6
ExecutionTime = 0.65 s  ClockTime = 0 s

scalarTransport execute: age
smoothSolver:  Solving for age, Initial residual = 0.0158884, Final residual = 0.00150406, No Iterations 12

Time = 49

smoothSolver:  Solving for Ux, Initial residual = 0.0181161, Final residual = 0.00130362, No Iterations 6
smoothSolver:  Solving for Uy, Initial residual = 0.00763763, Final residual = 0.000546332, No Iterations 6
GAMG:  Solving for p, Initial residual = 0.00918252, Final residual = 0.000656303, No Iterations 2
time step continuity errors : sum local = 0.00169279, global = 0.000178775, cumulative = 0.00835643
smoothSolver:  Solving for omega, Initial residual = 0.00176758, Final residual = 0.000163595, No Iterations 5
smoothSolver:  Solving for k, Initial residual = 0.0206335, Final residual = 0.00167388, No Iterations 6
ExecutionTime = 0.66 s  ClockTime = 0 s

scalarTransport execute: age
smoothSolver:  Solving for age, Initial residual = 0.0159847, Final residual = 0.00154919, No Iterations 12

Time = 50

smoothSolver:  Solving for Ux, Initial residual = 0.0178751, Final residual = 0.00128915, No Iterations 6
smoothSolver:  Solving for Uy, Initial residual = 0.00777318, Final residual = 0.000561845, No Iterations 6
GAMG:  Solving for p, Initial residual = 0.00898648, Final residual = 0.000667165, No Iterations 2
time step continuity errors : sum local = 0.00171813, global = 0.000179263, cumulative = 0.0085357
smoothSolver:  Solving for omega, Initial residual = 0.00169994, Final residual = 0.000155994, No Iterations 5
smoothSolver:  Solving for k, Initial residual = 0.0201345, Final residual = 0.00163242, No Iterations 6
ExecutionTime = 0.67 s  ClockTime = 0 s

scalarTransport execute: age
smoothSolver:  Solving for age, Initial residual = 0.0161876, Final residual = 0.00159123, No Iterations 12

Time = 51

smoothSolver:  Solving for Ux, Initial residual = 0.01762, Final residual = 0.00127414, No Iterations 6
smoothSolver:  Solving for Uy, Initial residual = 0.0079214, Final residual = 0.000578093, No Iterations 6
GAMG:  Solving for p, Initial residual = 0.00879764, Final residual = 0.000676735, No Iterations 2
time step continuity errors : sum local = 0.00174021, global = 0.00017934, cumulative = 0.00871504
smoothSolver:  Solving for omega, Initial residual = 0.00163278, Final residual = 0.000148869, No Iterations 5
smoothSolver:  Solving for k, Initial residual = 0.0196597, Final residual = 0.00159273, No Iterations 6
ExecutionTime = 0.69 s  ClockTime = 0 s

scalarTransport execute: age
smoothSolver:  Solving for age, Initial residual = 0.016381, Final residual = 0.00162964, No Iterations 12

Time = 52

smoothSolver:  Solving for Ux, Initial residual = 0.0173596, Final residual = 0.00125883, No Iterations 6
smoothSolver:  Solving for Uy, Initial residual = 0.00807789, Final residual = 0.000594488, No Iterations 6
GAMG:  Solving for p, Initial residual = 0.00863174, Final residual = 0.000688679, No Iterations 2
time step continuity errors : sum local = 0.00176759, global = 0.000180468, cumulative = 0.0088955
smoothSolver:  Solving for omega, Initial residual = 0.00157086, Final residual = 0.00014218, No Iterations 5
smoothSolver:  Solving for k, Initial residual = 0.0192057, Final residual = 0.00155457, No Iterations 6
ExecutionTime = 0.7 s  ClockTime = 0 s

scalarTransport execute: age
smoothSolver:  Solving for age, Initial residual = 0.016531, Final residual = 0.00145677, No Iterations 13

Time = 53

smoothSolver:  Solving for Ux, Initial residual = 0.0170962, Final residual = 0.00124283, No Iterations 6
smoothSolver:  Solving for Uy, Initial residual = 0.00823988, Final residual = 0.000610658, No Iterations 6
GAMG:  Solving for p, Initial residual = 0.00848001, Final residual = 0.000697998, No Iterations 2
time step continuity errors : sum local = 0.00178836, global = 0.000181406, cumulative = 0.00907691
smoothSolver:  Solving for omega, Initial residual = 0.00151246, Final residual = 0.000135919, No Iterations 5
smoothSolver:  Solving for k, Initial residual = 0.0187728, Final residual = 0.00151792, No Iterations 6
ExecutionTime = 0.71 s  ClockTime = 0 s

scalarTransport execute: age
smoothSolver:  Solving for age, Initial residual = 0.0166165, Final residual = 0.00147722, No Iterations 13

Time = 54

smoothSolver:  Solving for Ux, Initial residual = 0.0168475, Final residual = 0.00122695, No Iterations 6
smoothSolver:  Solving for Uy, Initial residual = 0.00840658, Final residual = 0.000626279, No Iterations 6
GAMG:  Solving for p, Initial residual = 0.00834927, Final residual = 0.000707638, No Iterations 2
time step continuity errors : sum local = 0.00180978, global = 0.000183244, cumulative = 0.00926016
smoothSolver:  Solving for omega, Initial residual = 0.00145974, Final residual = 0.00013007, No Iterations 5
smoothSolver:  Solving for k, Initial residual = 0.0183584, Final residual = 0.00148265, No Iterations 6
ExecutionTime = 0.72 s  ClockTime = 0 s

scalarTransport execute: age
smoothSolver:  Solving for age, Initial residual = 0.0166716, Final residual = 0.00149746, No Iterations 13

Time = 55

smoothSolver:  Solving for Ux, Initial residual = 0.0166147, Final residual = 0.00121144, No Iterations 6
smoothSolver:  Solving for Uy, Initial residual = 0.00857035, Final residual = 0.000640755, No Iterations 6
GAMG:  Solving for p, Initial residual = 0.00825314, Final residual = 0.000720026, No Iterations 2
time step continuity errors : sum local = 0.00183822, global = 0.000184333, cumulative = 0.00944449
smoothSolver:  Solving for omega, Initial residual = 0.00141166, Final residual = 0.000124652, No Iterations 5
smoothSolver:  Solving for k, Initial residual = 0.01796, Final residual = 0.00144868, No Iterations 6
ExecutionTime = 0.74 s  ClockTime = 0 s

scalarTransport execute: age
smoothSolver:  Solving for age, Initial residual = 0.0166612, Final residual = 0.00151526, No Iterations 13

Time = 56

smoothSolver:  Solving for Ux, Initial residual = 0.0163928, Final residual = 0.00119595, No Iterations 6
smoothSolver:  Solving for Uy, Initial residual = 0.00872386, Final residual = 0.000654051, No Iterations 6
GAMG:  Solving for p, Initial residual = 0.00819858, Final residual = 0.000735437, No Iterations 2
time step continuity errors : sum local = 0.00187432, global = 0.000184604, cumulative = 0.00962909
smoothSolver:  Solving for omega, Initial residual = 0.00137116, Final residual = 0.0001196, No Iterations 5
smoothSolver:  Solving for k, Initial residual = 0.0175767, Final residual = 0.00141594, No Iterations 6
ExecutionTime = 0.75 s  ClockTime = 0 s

scalarTransport execute: age
smoothSolver:  Solving for age, Initial residual = 0.016771, Final residual = 0.00153104, No Iterations 13

Time = 57

smoothSolver:  Solving for Ux, Initial residual = 0.0161743, Final residual = 0.00118039, No Iterations 6
smoothSolver:  Solving for Uy, Initial residual = 0.00885688, Final residual = 0.000665762, No Iterations 6
GAMG:  Solving for p, Initial residual = 0.00811954, Final residual = 0.000747402, No Iterations 2
time step continuity errors : sum local = 0.00190036, global = 0.000183901, cumulative = 0.00981299
smoothSolver:  Solving for omega, Initial residual = 0.00132994, Final residual = 0.000114889, No Iterations 5
smoothSolver:  Solving for k, Initial residual = 0.017208, Final residual = 0.00138436, No Iterations 6
ExecutionTime = 0.76 s  ClockTime = 0 s

scalarTransport execute: age
smoothSolver:  Solving for age, Initial residual = 0.0168698, Final residual = 0.00154544, No Iterations 13

Time = 58

smoothSolver:  Solving for Ux, Initial residual = 0.0159561, Final residual = 0.00116477, No Iterations 6
smoothSolver:  Solving for Uy, Initial residual = 0.0089703, Final residual = 0.000675888, No Iterations 6
GAMG:  Solving for p, Initial residual = 0.00800209, Final residual = 0.000753371, No Iterations 2
time step continuity errors : sum local = 0.0019089, global = 0.000182155, cumulative = 0.00999515
smoothSolver:  Solving for omega, Initial residual = 0.00128609, Final residual = 0.000110443, No Iterations 5
smoothSolver:  Solving for k, Initial residual = 0.0168541, Final residual = 0.00135389, No Iterations 6
ExecutionTime = 0.78 s  ClockTime = 1 s

scalarTransport execute: age
smoothSolver:  Solving for age, Initial residual = 0.017025, Final residual = 0.00155759, No Iterations 13

Time = 59

smoothSolver:  Solving for Ux, Initial residual = 0.0157419, Final residual = 0.0011495, No Iterations 6
smoothSolver:  Solving for Uy, Initial residual = 0.00905789, Final residual = 0.000684327, No Iterations 6
GAMG:  Solving for p, Initial residual = 0.00796588, Final residual = 0.000759761, No Iterations 2
time step continuity errors : sum local = 0.00191855, global = 0.000179763, cumulative = 0.0101749
smoothSolver:  Solving for omega, Initial residual = 0.00125306, Final residual = 0.000106418, No Iterations 5
smoothSolver:  Solving for k, Initial residual = 0.0165113, Final residual = 0.0013244, No Iterations 6
ExecutionTime = 0.79 s  ClockTime = 1 s

scalarTransport execute: age
smoothSolver:  Solving for age, Initial residual = 0.0171702, Final residual = 0.00156771, No Iterations 13

Time = 60

smoothSolver:  Solving for Ux, Initial residual = 0.0155356, Final residual = 0.0011346, No Iterations 6
smoothSolver:  Solving for Uy, Initial residual = 0.00912757, Final residual = 0.000691164, No Iterations 6
GAMG:  Solving for p, Initial residual = 0.00797196, Final residual = 0.000757639, No Iterations 2
time step continuity errors : sum local = 0.00190649, global = 0.000167961, cumulative = 0.0103429
smoothSolver:  Solving for omega, Initial residual = 0.00122428, Final residual = 0.000102681, No Iterations 5
smoothSolver:  Solving for k, Initial residual = 0.0161806, Final residual = 0.00129585, No Iterations 6
ExecutionTime = 0.8 s  ClockTime = 1 s

scalarTransport execute: age
smoothSolver:  Solving for age, Initial residual = 0.0172999, Final residual = 0.00157636, No Iterations 13

Time = 61

smoothSolver:  Solving for Ux, Initial residual = 0.0153813, Final residual = 0.00112173, No Iterations 6
smoothSolver:  Solving for Uy, Initial residual = 0.00916455, Final residual = 0.000695558, No Iterations 6
GAMG:  Solving for p, Initial residual = 0.00798382, Final residual = 0.000769087, No Iterations 2
time step continuity errors : sum local = 0.00192613, global = 0.000163001, cumulative = 0.0105059
smoothSolver:  Solving for omega, Initial residual = 0.00119476, Final residual = 9.92343e-05, No Iterations 5
smoothSolver:  Solving for k, Initial residual = 0.0158585, Final residual = 0.00126813, No Iterations 6
ExecutionTime = 0.81 s  ClockTime = 1 s

scalarTransport execute: age
smoothSolver:  Solving for age, Initial residual = 0.0174158, Final residual = 0.00158613, No Iterations 13

Time = 62

smoothSolver:  Solving for Ux, Initial residual = 0.0152309, Final residual = 0.00110838, No Iterations 6
smoothSolver:  Solving for Uy, Initial residual = 0.00918406, Final residual = 0.000698803, No Iterations 6
GAMG:  Solving for p, Initial residual = 0.00798856, Final residual = 0.000776134, No Iterations 2
time step continuity errors : sum local = 0.00193519, global = 0.000158121, cumulative = 0.010664
smoothSolver:  Solving for omega, Initial residual = 0.00116714, Final residual = 9.59704e-05, No Iterations 5
smoothSolver:  Solving for k, Initial residual = 0.0155444, Final residual = 0.0012412, No Iterations 6
ExecutionTime = 0.83 s  ClockTime = 1 s

scalarTransport execute: age
smoothSolver:  Solving for age, Initial residual = 0.017631, Final residual = 0.00167006, No Iterations 13

Time = 63

smoothSolver:  Solving for Ux, Initial residual = 0.0150964, Final residual = 0.00109662, No Iterations 6
smoothSolver:  Solving for Uy, Initial residual = 0.00918343, Final residual = 0.000700578, No Iterations 6
GAMG:  Solving for p, Initial residual = 0.00797542, Final residual = 0.00077283, No Iterations 2
time step continuity errors : sum local = 0.0019185, global = 0.000148349, cumulative = 0.0108123
smoothSolver:  Solving for omega, Initial residual = 0.00114014, Final residual = 9.29428e-05, No Iterations 5
smoothSolver:  Solving for k, Initial residual = 0.0152404, Final residual = 0.00121504, No Iterations 6
ExecutionTime = 0.84 s  ClockTime = 1 s

scalarTransport execute: age
smoothSolver:  Solving for age, Initial residual = 0.0177991, Final residual = 0.00172479, No Iterations 13

Time = 64

smoothSolver:  Solving for Ux, Initial residual = 0.0150027, Final residual = 0.00108839, No Iterations 6
smoothSolver:  Solving for Uy, Initial residual = 0.00915819, Final residual = 0.0007004, No Iterations 6
GAMG:  Solving for p, Initial residual = 0.00797282, Final residual = 0.00077302, No Iterations 2
time step continuity errors : sum local = 0.00191023, global = 0.000145815, cumulative = 0.0109582
smoothSolver:  Solving for omega, Initial residual = 0.00111574, Final residual = 9.01388e-05, No Iterations 5
smoothSolver:  Solving for k, Initial residual = 0.0149433, Final residual = 0.00118953, No Iterations 6
ExecutionTime = 0.85 s  ClockTime = 1 s

scalarTransport execute: age
smoothSolver:  Solving for age, Initial residual = 0.0177757, Final residual = 0.00174117, No Iterations 13

Time = 65

smoothSolver:  Solving for Ux, Initial residual = 0.014923, Final residual = 0.00108136, No Iterations 6
smoothSolver:  Solving for Uy, Initial residual = 0.0091216, Final residual = 0.000699, No Iterations 6
GAMG:  Solving for p, Initial residual = 0.00799728, Final residual = 0.00076901, No Iterations 2
time step continuity errors : sum local = 0.00189283, global = 0.00014423, cumulative = 0.0111024
smoothSolver:  Solving for omega, Initial residual = 0.00109445, Final residual = 8.75461e-05, No Iterations 5
smoothSolver:  Solving for k, Initial residual = 0.0146529, Final residual = 0.00116467, No Iterations 6
ExecutionTime = 0.87 s  ClockTime = 1 s

scalarTransport execute: age
smoothSolver:  Solving for age, Initial residual = 0.0178115, Final residual = 0.00174125, No Iterations 13

Time = 66

smoothSolver:  Solving for Ux, Initial residual = 0.0148533, Final residual = 0.00107545, No Iterations 6
smoothSolver:  Solving for Uy, Initial residual = 0.00906322, Final residual = 0.000695754, No Iterations 6
GAMG:  Solving for p, Initial residual = 0.00803134, Final residual = 0.000762035, No Iterations 2
time step continuity errors : sum local = 0.00186752, global = 0.000143384, cumulative = 0.0112458
smoothSolver:  Solving for omega, Initial residual = 0.00107073, Final residual = 8.50497e-05, No Iterations 5
smoothSolver:  Solving for k, Initial residual = 0.0143681, Final residual = 0.00114031, No Iterations 6
ExecutionTime = 0.88 s  ClockTime = 1 s

scalarTransport execute: age
smoothSolver:  Solving for age, Initial residual = 0.0177291, Final residual = 0.00172488, No Iterations 13

Time = 67

smoothSolver:  Solving for Ux, Initial residual = 0.0147935, Final residual = 0.00107024, No Iterations 6
smoothSolver:  Solving for Uy, Initial residual = 0.00898269, Final residual = 0.000690735, No Iterations 6
GAMG:  Solving for p, Initial residual = 0.00807402, Final residual = 0.000750987, No Iterations 2
time step continuity errors : sum local = 0.00183197, global = 0.00014272, cumulative = 0.0113885
smoothSolver:  Solving for omega, Initial residual = 0.00104912, Final residual = 8.28002e-05, No Iterations 5
smoothSolver:  Solving for k, Initial residual = 0.0140887, Final residual = 0.00111643, No Iterations 6
ExecutionTime = 0.89 s  ClockTime = 1 s

scalarTransport execute: age
smoothSolver:  Solving for age, Initial residual = 0.0175706, Final residual = 0.00174484, No Iterations 13

Time = 68

smoothSolver:  Solving for Ux, Initial residual = 0.0147365, Final residual = 0.00106507, No Iterations 6
smoothSolver:  Solving for Uy, Initial residual = 0.00888381, Final residual = 0.000684073, No Iterations 6
GAMG:  Solving for p, Initial residual = 0.00815829, Final residual = 0.000737318, No Iterations 2
time step continuity errors : sum local = 0.00178954, global = 0.000141707, cumulative = 0.0115302
smoothSolver:  Solving for omega, Initial residual = 0.00102994, Final residual = 8.076e-05, No Iterations 5
smoothSolver:  Solving for k, Initial residual = 0.0138131, Final residual = 0.00109298, No Iterations 6
ExecutionTime = 0.9 s  ClockTime = 1 s

scalarTransport execute: age
smoothSolver:  Solving for age, Initial residual = 0.0176036, Final residual = 0.00155917, No Iterations 14

Time = 69

smoothSolver:  Solving for Ux, Initial residual = 0.0146724, Final residual = 0.00105937, No Iterations 6
smoothSolver:  Solving for Uy, Initial residual = 0.0087668, Final residual = 0.000676145, No Iterations 6
GAMG:  Solving for p, Initial residual = 0.00822508, Final residual = 0.000723027, No Iterations 2
time step continuity errors : sum local = 0.00174579, global = 0.000139275, cumulative = 0.0116695
smoothSolver:  Solving for omega, Initial residual = 0.00101096, Final residual = 7.88046e-05, No Iterations 5
smoothSolver:  Solving for k, Initial residual = 0.0135422, Final residual = 0.00106997, No Iterations 6
ExecutionTime = 0.92 s  ClockTime = 1 s

scalarTransport execute: age
smoothSolver:  Solving for age, Initial residual = 0.0174817, Final residual = 0.00156193, No Iterations 14

Time = 70

smoothSolver:  Solving for Ux, Initial residual = 0.0145994, Final residual = 0.00105332, No Iterations 6
smoothSolver:  Solving for Uy, Initial residual = 0.00863929, Final residual = 0.000667028, No Iterations 6
GAMG:  Solving for p, Initial residual = 0.00830141, Final residual = 0.000706667, No Iterations 2
time step continuity errors : sum local = 0.0016976, global = 0.000135922, cumulative = 0.0118054
smoothSolver:  Solving for omega, Initial residual = 0.000992745, Final residual = 7.69406e-05, No Iterations 5
smoothSolver:  Solving for k, Initial residual = 0.0132744, Final residual = 0.00104725, No Iterations 6
ExecutionTime = 0.93 s  ClockTime = 1 s

scalarTransport execute: age
smoothSolver:  Solving for age, Initial residual = 0.0172213, Final residual = 0.0015673, No Iterations 14

Time = 71

smoothSolver:  Solving for Ux, Initial residual = 0.0145023, Final residual = 0.0010458, No Iterations 6
smoothSolver:  Solving for Uy, Initial residual = 0.00850015, Final residual = 0.00065698, No Iterations 6
GAMG:  Solving for p, Initial residual = 0.00835002, Final residual = 0.000692461, No Iterations 2
time step continuity errors : sum local = 0.00165509, global = 0.000131468, cumulative = 0.0119369
smoothSolver:  Solving for omega, Initial residual = 0.000974989, Final residual = 7.51753e-05, No Iterations 5
smoothSolver:  Solving for k, Initial residual = 0.0130096, Final residual = 0.00102481, No Iterations 6
ExecutionTime = 0.94 s  ClockTime = 1 s

scalarTransport execute: age
smoothSolver:  Solving for age, Initial residual = 0.0168994, Final residual = 0.00157337, No Iterations 14

Time = 72

smoothSolver:  Solving for Ux, Initial residual = 0.0143834, Final residual = 0.00103661, No Iterations 6
smoothSolver:  Solving for Uy, Initial residual = 0.00835316, Final residual = 0.000646017, No Iterations 6
GAMG:  Solving for p, Initial residual = 0.00838134, Final residual = 0.000681134, No Iterations 2
time step continuity errors : sum local = 0.00162015, global = 0.000126126, cumulative = 0.012063
smoothSolver:  Solving for omega, Initial residual = 0.000952317, Final residual = 7.33312e-05, No Iterations 5
smoothSolver:  Solving for k, Initial residual = 0.0127482, Final residual = 0.00100268, No Iterations 6
ExecutionTime = 0.96 s  ClockTime = 1 s

scalarTransport execute: age
smoothSolver:  Solving for age, Initial residual = 0.0166576, Final residual = 0.00157677, No Iterations 14

Time = 73

smoothSolver:  Solving for Ux, Initial residual = 0.0142412, Final residual = 0.00102576, No Iterations 6
smoothSolver:  Solving for Uy, Initial residual = 0.00819757, Final residual = 0.000634143, No Iterations 6
GAMG:  Solving for p, Initial residual = 0.00838858, Final residual = 0.000670016, No Iterations 2
time step continuity errors : sum local = 0.00158632, global = 0.000120099, cumulative = 0.0121831
smoothSolver:  Solving for omega, Initial residual = 0.000934895, Final residual = 7.17036e-05, No Iterations 5
smoothSolver:  Solving for k, Initial residual = 0.0124901, Final residual = 0.000980755, No Iterations 6
ExecutionTime = 0.97 s  ClockTime = 1 s

scalarTransport execute: age
smoothSolver:  Solving for age, Initial residual = 0.0163307, Final residual = 0.00156721, No Iterations 14

Time = 74

smoothSolver:  Solving for Ux, Initial residual = 0.0140742, Final residual = 0.0010133, No Iterations 6
smoothSolver:  Solving for Uy, Initial residual = 0.00803354, Final residual = 0.000621485, No Iterations 6
GAMG:  Solving for p, Initial residual = 0.00841271, Final residual = 0.000659497, No Iterations 2
time step continuity errors : sum local = 0.00155419, global = 0.000114127, cumulative = 0.0122972
smoothSolver:  Solving for omega, Initial residual = 0.000916306, Final residual = 7.01882e-05, No Iterations 5
smoothSolver:  Solving for k, Initial residual = 0.0122357, Final residual = 0.000959043, No Iterations 6
ExecutionTime = 0.98 s  ClockTime = 1 s

scalarTransport execute: age
smoothSolver:  Solving for age, Initial residual = 0.0159485, Final residual = 0.00156115, No Iterations 14

Time = 75

smoothSolver:  Solving for Ux, Initial residual = 0.0138829, Final residual = 0.000999145, No Iterations 6
smoothSolver:  Solving for Uy, Initial residual = 0.00786446, Final residual = 0.000608138, No Iterations 6
GAMG:  Solving for p, Initial residual = 0.00841111, Final residual = 0.000650121, No Iterations 2
time step continuity errors : sum local = 0.00152528, global = 0.000108472, cumulative = 0.0124057
smoothSolver:  Solving for omega, Initial residual = 0.000898461, Final residual = 6.86701e-05, No Iterations 5
smoothSolver:  Solving for k, Initial residual = 0.011984, Final residual = 0.000937511, No Iterations 6
ExecutionTime = 0.99 s  ClockTime = 1 s

scalarTransport execute: age
smoothSolver:  Solving for age, Initial residual = 0.0155289, Final residual = 0.00154702, No Iterations 14

Time = 76

smoothSolver:  Solving for Ux, Initial residual = 0.0136671, Final residual = 0.000983375, No Iterations 6
smoothSolver:  Solving for Uy, Initial residual = 0.00769199, Final residual = 0.000594117, No Iterations 6
GAMG:  Solving for p, Initial residual = 0.00839726, Final residual = 0.000642011, No Iterations 2
time step continuity errors : sum local = 0.00149965, global = 0.000103479, cumulative = 0.0125092
smoothSolver:  Solving for omega, Initial residual = 0.000880681, Final residual = 6.71553e-05, No Iterations 5
smoothSolver:  Solving for k, Initial residual = 0.0117349, Final residual = 0.000916115, No Iterations 6
ExecutionTime = 1.01 s  ClockTime = 1 s

scalarTransport execute: age
smoothSolver:  Solving for age, Initial residual = 0.0150831, Final residual = 0.00133224, No Iterations 15

Time = 77

smoothSolver:  Solving for Ux, Initial residual = 0.0134281, Final residual = 0.000965916, No Iterations 6
smoothSolver:  Solving for Uy, Initial residual = 0.00751538, Final residual = 0.000579506, No Iterations 6
GAMG:  Solving for p, Initial residual = 0.00835253, Final residual = 0.000634813, No Iterations 2
time step continuity errors : sum local = 0.00147638, global = 9.94825e-05, cumulative = 0.0126087
smoothSolver:  Solving for omega, Initial residual = 0.00086341, Final residual = 6.56242e-05, No Iterations 5
smoothSolver:  Solving for k, Initial residual = 0.0114881, Final residual = 0.00089488, No Iterations 6
ExecutionTime = 1.02 s  ClockTime = 1 s

scalarTransport execute: age
smoothSolver:  Solving for age, Initial residual = 0.0144749, Final residual = 0.00128719, No Iterations 15

Time = 78

smoothSolver:  Solving for Ux, Initial residual = 0.0131678, Final residual = 0.000946853, No Iterations 6
smoothSolver:  Solving for Uy, Initial residual = 0.00733072, Final residual = 0.000564328, No Iterations 6
GAMG:  Solving for p, Initial residual = 0.00826268, Final residual = 0.00062745, No Iterations 2
time step continuity errors : sum local = 0.00145313, global = 9.6733e-05, cumulative = 0.0127054
smoothSolver:  Solving for omega, Initial residual = 0.000846931, Final residual = 6.40682e-05, No Iterations 5
smoothSolver:  Solving for k, Initial residual = 0.0112424, Final residual = 0.000873774, No Iterations 6
ExecutionTime = 1.03 s  ClockTime = 1 s

scalarTransport execute: age
smoothSolver:  Solving for age, Initial residual = 0.013856, Final residual = 0.00123419, No Iterations 15

Time = 79

smoothSolver:  Solving for Ux, Initial residual = 0.0128871, Final residual = 0.000926515, No Iterations 6
smoothSolver:  Solving for Uy, Initial residual = 0.00713999, Final residual = 0.000548628, No Iterations 6
GAMG:  Solving for p, Initial residual = 0.00814429, Final residual = 0.000619107, No Iterations 2
time step continuity errors : sum local = 0.00142797, global = 9.52461e-05, cumulative = 0.0128006
smoothSolver:  Solving for omega, Initial residual = 0.000829798, Final residual = 6.2545e-05, No Iterations 5
smoothSolver:  Solving for k, Initial residual = 0.010998, Final residual = 0.000852761, No Iterations 6
ExecutionTime = 1.05 s  ClockTime = 1 s

scalarTransport execute: age
smoothSolver:  Solving for age, Initial residual = 0.0132121, Final residual = 0.00117216, No Iterations 15

Time = 80

smoothSolver:  Solving for Ux, Initial residual = 0.0125859, Final residual = 0.000904719, No Iterations 6
smoothSolver:  Solving for Uy, Initial residual = 0.00695387, Final residual = 0.000532512, No Iterations 6
GAMG:  Solving for p, Initial residual = 0.00800234, Final residual = 0.000608888, No Iterations 2
time step continuity errors : sum local = 0.00139878, global = 9.51021e-05, cumulative = 0.0128957
smoothSolver:  Solving for omega, Initial residual = 0.000812506, Final residual = 6.10182e-05, No Iterations 5
smoothSolver:  Solving for k, Initial residual = 0.0107529, Final residual = 0.000831693, No Iterations 6
ExecutionTime = 1.06 s  ClockTime = 1 s

scalarTransport execute: age
smoothSolver:  Solving for age, Initial residual = 0.0125927, Final residual = 0.00110293, No Iterations 15

Time = 81

smoothSolver:  Solving for Ux, Initial residual = 0.012264, Final residual = 0.000881554, No Iterations 6
smoothSolver:  Solving for Uy, Initial residual = 0.00676236, Final residual = 0.00051604, No Iterations 6
GAMG:  Solving for p, Initial residual = 0.0078489, Final residual = 0.000598024, No Iterations 2
time step continuity errors : sum local = 0.0013682, global = 9.65282e-05, cumulative = 0.0129923
smoothSolver:  Solving for omega, Initial residual = 0.000798909, Final residual = 5.94115e-05, No Iterations 5
smoothSolver:  Solving for k, Initial residual = 0.010509, Final residual = 0.000810685, No Iterations 6
ExecutionTime = 1.07 s  ClockTime = 1 s

scalarTransport execute: age
smoothSolver:  Solving for age, Initial residual = 0.0120089, Final residual = 0.00117788, No Iterations 14

Time = 82

smoothSolver:  Solving for Ux, Initial residual = 0.0119233, Final residual = 0.000857153, No Iterations 6
smoothSolver:  Solving for Uy, Initial residual = 0.00657323, Final residual = 0.000499168, No Iterations 6
GAMG:  Solving for p, Initial residual = 0.00767892, Final residual = 0.000586775, No Iterations 2
time step continuity errors : sum local = 0.00133686, global = 9.91001e-05, cumulative = 0.0130914
smoothSolver:  Solving for omega, Initial residual = 0.000787033, Final residual = 5.7774e-05, No Iterations 5
smoothSolver:  Solving for k, Initial residual = 0.0102668, Final residual = 0.000789745, No Iterations 6
ExecutionTime = 1.08 s  ClockTime = 1 s

scalarTransport execute: age
smoothSolver:  Solving for age, Initial residual = 0.0114987, Final residual = 0.0011074, No Iterations 14

Time = 83

smoothSolver:  Solving for Ux, Initial residual = 0.0115768, Final residual = 0.000832127, No Iterations 6
smoothSolver:  Solving for Uy, Initial residual = 0.0063848, Final residual = 0.000481967, No Iterations 6
GAMG:  Solving for p, Initial residual = 0.00750922, Final residual = 0.000575154, No Iterations 2
time step continuity errors : sum local = 0.00130511, global = 0.000102511, cumulative = 0.0131939
smoothSolver:  Solving for omega, Initial residual = 0.0007694, Final residual = 5.61342e-05, No Iterations 5
smoothSolver:  Solving for k, Initial residual = 0.0100237, Final residual = 0.000768796, No Iterations 6
ExecutionTime = 1.1 s  ClockTime = 1 s

scalarTransport execute: age
smoothSolver:  Solving for age, Initial residual = 0.0110737, Final residual = 0.00104205, No Iterations 14

Time = 84

smoothSolver:  Solving for Ux, Initial residual = 0.0112273, Final residual = 0.000806735, No Iterations 6
smoothSolver:  Solving for Uy, Initial residual = 0.0061961, Final residual = 0.000464532, No Iterations 6
GAMG:  Solving for p, Initial residual = 0.00732877, Final residual = 0.000564316, No Iterations 2
time step continuity errors : sum local = 0.00127577, global = 0.000106574, cumulative = 0.0133004
smoothSolver:  Solving for omega, Initial residual = 0.000753629, Final residual = 5.45196e-05, No Iterations 5
smoothSolver:  Solving for k, Initial residual = 0.00978291, Final residual = 0.000747933, No Iterations 6
ExecutionTime = 1.11 s  ClockTime = 1 s

scalarTransport execute: age
smoothSolver:  Solving for age, Initial residual = 0.010603, Final residual = 0.000976588, No Iterations 14

Time = 85

smoothSolver:  Solving for Ux, Initial residual = 0.0108756, Final residual = 0.000780835, No Iterations 6
smoothSolver:  Solving for Uy, Initial residual = 0.00600763, Final residual = 0.000446882, No Iterations 6
GAMG:  Solving for p, Initial residual = 0.00716397, Final residual = 0.000555047, No Iterations 2
time step continuity errors : sum local = 0.00125015, global = 0.000111023, cumulative = 0.0134115
smoothSolver:  Solving for omega, Initial residual = 0.000735347, Final residual = 5.27947e-05, No Iterations 5
smoothSolver:  Solving for k, Initial residual = 0.00954053, Final residual = 0.000727099, No Iterations 6
ExecutionTime = 1.12 s  ClockTime = 1 s

scalarTransport execute: age
smoothSolver:  Solving for age, Initial residual = 0.0101239, Final residual = 0.000917807, No Iterations 14

Time = 86

smoothSolver:  Solving for Ux, Initial residual = 0.0105222, Final residual = 0.000754595, No Iterations 6
smoothSolver:  Solving for Uy, Initial residual = 0.00581659, Final residual = 0.000429089, No Iterations 6
GAMG:  Solving for p, Initial residual = 0.00703299, Final residual = 0.000545704, No Iterations 2
time step continuity errors : sum local = 0.00122443, global = 0.000115473, cumulative = 0.0135269
smoothSolver:  Solving for omega, Initial residual = 0.000715872, Final residual = 5.0995e-05, No Iterations 5
smoothSolver:  Solving for k, Initial residual = 0.00929913, Final residual = 0.000706297, No Iterations 6
ExecutionTime = 1.14 s  ClockTime = 1 s

scalarTransport execute: age
smoothSolver:  Solving for age, Initial residual = 0.00968702, Final residual = 0.000868505, No Iterations 14

Time = 87

smoothSolver:  Solving for Ux, Initial residual = 0.0101702, Final residual = 0.000728468, No Iterations 6
smoothSolver:  Solving for Uy, Initial residual = 0.00562082, Final residual = 0.000411232, No Iterations 6
GAMG:  Solving for p, Initial residual = 0.00695557, Final residual = 0.000536931, No Iterations 2
time step continuity errors : sum local = 0.00120003, global = 0.000119656, cumulative = 0.0136466
smoothSolver:  Solving for omega, Initial residual = 0.000699112, Final residual = 4.92759e-05, No Iterations 5
smoothSolver:  Solving for k, Initial residual = 0.00905889, Final residual = 0.000685464, No Iterations 6
ExecutionTime = 1.15 s  ClockTime = 1 s

scalarTransport execute: age
smoothSolver:  Solving for age, Initial residual = 0.00924537, Final residual = 0.000828108, No Iterations 14

Time = 88

smoothSolver:  Solving for Ux, Initial residual = 0.00981346, Final residual = 0.000702017, No Iterations 6
smoothSolver:  Solving for Uy, Initial residual = 0.00542318, Final residual = 0.000393377, No Iterations 6
GAMG:  Solving for p, Initial residual = 0.00693082, Final residual = 0.000529226, No Iterations 2
time step continuity errors : sum local = 0.00117847, global = 0.000123432, cumulative = 0.01377
smoothSolver:  Solving for omega, Initial residual = 0.000679703, Final residual = 4.75015e-05, No Iterations 5
smoothSolver:  Solving for k, Initial residual = 0.00881894, Final residual = 0.000664615, No Iterations 6
ExecutionTime = 1.16 s  ClockTime = 1 s

scalarTransport execute: age
smoothSolver:  Solving for age, Initial residual = 0.0088315, Final residual = 0.000802363, No Iterations 14

Time = 89

smoothSolver:  Solving for Ux, Initial residual = 0.00946174, Final residual = 0.000675513, No Iterations 6
smoothSolver:  Solving for Uy, Initial residual = 0.00522348, Final residual = 0.000375492, No Iterations 6
GAMG:  Solving for p, Initial residual = 0.00692483, Final residual = 0.000517635, No Iterations 2
time step continuity errors : sum local = 0.00114849, global = 0.000123984, cumulative = 0.013894
smoothSolver:  Solving for omega, Initial residual = 0.000667375, Final residual = 4.57376e-05, No Iterations 5
smoothSolver:  Solving for k, Initial residual = 0.00858012, Final residual = 0.000643771, No Iterations 6
ExecutionTime = 1.17 s  ClockTime = 1 s

scalarTransport execute: age
smoothSolver:  Solving for age, Initial residual = 0.0084758, Final residual = 0.000784081, No Iterations 14

Time = 90

smoothSolver:  Solving for Ux, Initial residual = 0.00911447, Final residual = 0.000649268, No Iterations 6
smoothSolver:  Solving for Uy, Initial residual = 0.00502274, Final residual = 0.000357736, No Iterations 6
GAMG:  Solving for p, Initial residual = 0.00688276, Final residual = 0.000511724, No Iterations 2
time step continuity errors : sum local = 0.00112958, global = 0.000125154, cumulative = 0.0140192
smoothSolver:  Solving for omega, Initial residual = 0.00065405, Final residual = 4.42489e-05, No Iterations 5
smoothSolver:  Solving for k, Initial residual = 0.00834165, Final residual = 0.000622842, No Iterations 6
ExecutionTime = 1.19 s  ClockTime = 1 s

scalarTransport execute: age
smoothSolver:  Solving for age, Initial residual = 0.00811086, Final residual = 0.000767712, No Iterations 14

Time = 91

smoothSolver:  Solving for Ux, Initial residual = 0.00876863, Final residual = 0.000622669, No Iterations 6
smoothSolver:  Solving for Uy, Initial residual = 0.00483026, Final residual = 0.000340418, No Iterations 6
GAMG:  Solving for p, Initial residual = 0.00689252, Final residual = 0.000507229, No Iterations 2
time step continuity errors : sum local = 0.00111532, global = 0.000127125, cumulative = 0.0141463
smoothSolver:  Solving for omega, Initial residual = 0.000644105, Final residual = 4.28482e-05, No Iterations 5
smoothSolver:  Solving for k, Initial residual = 0.00810362, Final residual = 0.000601879, No Iterations 6
ExecutionTime = 1.2 s  ClockTime = 1 s

scalarTransport execute: age
smoothSolver:  Solving for age, Initial residual = 0.00778153, Final residual = 0.000750962, No Iterations 14

Time = 92

smoothSolver:  Solving for Ux, Initial residual = 0.00842366, Final residual = 0.000596181, No Iterations 6
smoothSolver:  Solving for Uy, Initial residual = 0.00464814, Final residual = 0.000323641, No Iterations 6
GAMG:  Solving for p, Initial residual = 0.00684144, Final residual = 0.000501561, No Iterations 2
time step continuity errors : sum local = 0.00109916, global = 0.00012841, cumulative = 0.0142747
smoothSolver:  Solving for omega, Initial residual = 0.000635051, Final residual = 4.14735e-05, No Iterations 5
smoothSolver:  Solving for k, Initial residual = 0.00786585, Final residual = 0.000580899, No Iterations 6
ExecutionTime = 1.21 s  ClockTime = 1 s

scalarTransport execute: age
smoothSolver:  Solving for age, Initial residual = 0.0074817, Final residual = 0.000736149, No Iterations 14

Time = 93

smoothSolver:  Solving for Ux, Initial residual = 0.00807426, Final residual = 0.000569467, No Iterations 6
smoothSolver:  Solving for Uy, Initial residual = 0.00447795, Final residual = 0.000307789, No Iterations 6
GAMG:  Solving for p, Initial residual = 0.00672567, Final residual = 0.000495106, No Iterations 2
time step continuity errors : sum local = 0.00108087, global = 0.000130253, cumulative = 0.014405
smoothSolver:  Solving for omega, Initial residual = 0.000627042, Final residual = 4.01304e-05, No Iterations 5
smoothSolver:  Solving for k, Initial residual = 0.00762876, Final residual = 0.000559954, No Iterations 6
ExecutionTime = 1.23 s  ClockTime = 1 s

scalarTransport execute: age
smoothSolver:  Solving for age, Initial residual = 0.00720985, Final residual = 0.000634586, No Iterations 15

Time = 94

smoothSolver:  Solving for Ux, Initial residual = 0.00772814, Final residual = 0.000542882, No Iterations 6
smoothSolver:  Solving for Uy, Initial residual = 0.00432352, Final residual = 0.000293375, No Iterations 6
GAMG:  Solving for p, Initial residual = 0.00662208, Final residual = 0.000486842, No Iterations 2
time step continuity errors : sum local = 0.00105934, global = 0.000132246, cumulative = 0.0145372
smoothSolver:  Solving for omega, Initial residual = 0.00061953, Final residual = 3.88219e-05, No Iterations 5
smoothSolver:  Solving for k, Initial residual = 0.00739208, Final residual = 0.000539051, No Iterations 6
ExecutionTime = 1.24 s  ClockTime = 1 s

scalarTransport execute: age
smoothSolver:  Solving for age, Initial residual = 0.00692904, Final residual = 0.00062124, No Iterations 15

Time = 95

smoothSolver:  Solving for Ux, Initial residual = 0.00737854, Final residual = 0.000516488, No Iterations 6
smoothSolver:  Solving for Uy, Initial residual = 0.00419143, Final residual = 0.000280935, No Iterations 6
GAMG:  Solving for p, Initial residual = 0.00654642, Final residual = 0.000476685, No Iterations 2
time step continuity errors : sum local = 0.0010346, global = 0.000133975, cumulative = 0.0146712
smoothSolver:  Solving for omega, Initial residual = 0.000609682, Final residual = 6.06341e-05, No Iterations 4
smoothSolver:  Solving for k, Initial residual = 0.00715574, Final residual = 0.000518325, No Iterations 6
ExecutionTime = 1.25 s  ClockTime = 1 s

scalarTransport execute: age
smoothSolver:  Solving for age, Initial residual = 0.00669622, Final residual = 0.000609908, No Iterations 15

Time = 96

smoothSolver:  Solving for Ux, Initial residual = 0.00703476, Final residual = 0.000490111, No Iterations 6
smoothSolver:  Solving for Uy, Initial residual = 0.00408396, Final residual = 0.000271134, No Iterations 6
[...]

Time = 570

smoothSolver:  Solving for Ux, Initial residual = 4.49999e-07, Final residual = 3.76986e-08, No Iterations 5
smoothSolver:  Solving for Uy, Initial residual = 2.89e-07, Final residual = 2.2943e-08, No Iterations 5
GAMG:  Solving for p, Initial residual = 1.60348e-06, Final residual = 1.08717e-07, No Iterations 2
time step continuity errors : sum local = 2.19237e-07, global = 2.25635e-08, cumulative = 0.0211183
smoothSolver:  Solving for omega, Initial residual = 5.4271e-08, Final residual = 9.38293e-09, No Iterations 3
smoothSolver:  Solving for k, Initial residual = 1.47434e-07, Final residual = 1.25931e-08, No Iterations 5
ExecutionTime = 7.31 s  ClockTime = 7 s

scalarTransport execute: age
smoothSolver:  Solving for age, Initial residual = 0.0002967, Final residual = 2.76765e-05, No Iterations 15

Time = 571

smoothSolver:  Solving for Ux, Initial residual = 4.405e-07, Final residual = 3.68999e-08, No Iterations 5
smoothSolver:  Solving for Uy, Initial residual = 2.82899e-07, Final residual = 2.24569e-08, No Iterations 5
GAMG:  Solving for p, Initial residual = 1.57004e-06, Final residual = 1.06444e-07, No Iterations 2
time step continuity errors : sum local = 2.14653e-07, global = 2.20883e-08, cumulative = 0.0211183
smoothSolver:  Solving for omega, Initial residual = 5.3377e-08, Final residual = 9.24531e-09, No Iterations 3
smoothSolver:  Solving for k, Initial residual = 1.44242e-07, Final residual = 1.23174e-08, No Iterations 5
ExecutionTime = 7.32 s  ClockTime = 7 s

scalarTransport execute: age
smoothSolver:  Solving for age, Initial residual = 0.000296064, Final residual = 2.76178e-05, No Iterations 15

Time = 572

smoothSolver:  Solving for Ux, Initial residual = 4.31204e-07, Final residual = 3.61187e-08, No Iterations 5
smoothSolver:  Solving for Uy, Initial residual = 2.76911e-07, Final residual = 2.19802e-08, No Iterations 5
GAMG:  Solving for p, Initial residual = 1.5373e-06, Final residual = 1.04224e-07, No Iterations 2
time step continuity errors : sum local = 2.10177e-07, global = 2.16269e-08, cumulative = 0.0211183
smoothSolver:  Solving for omega, Initial residual = 5.24656e-08, Final residual = 9.1029e-09, No Iterations 3
smoothSolver:  Solving for k, Initial residual = 1.41105e-07, Final residual = 1.20473e-08, No Iterations 5
ExecutionTime = 7.33 s  ClockTime = 7 s

scalarTransport execute: age
smoothSolver:  Solving for age, Initial residual = 0.00029543, Final residual = 2.75594e-05, No Iterations 15

Time = 573

smoothSolver:  Solving for Ux, Initial residual = 4.22109e-07, Final residual = 3.53546e-08, No Iterations 5
smoothSolver:  Solving for Uy, Initial residual = 2.71039e-07, Final residual = 2.1513e-08, No Iterations 5
GAMG:  Solving for p, Initial residual = 1.50523e-06, Final residual = 1.02052e-07, No Iterations 2
time step continuity errors : sum local = 2.05798e-07, global = 2.11791e-08, cumulative = 0.0211183
smoothSolver:  Solving for omega, Initial residual = 5.15444e-08, Final residual = 8.95702e-09, No Iterations 3
smoothSolver:  Solving for k, Initial residual = 1.38026e-07, Final residual = 1.17828e-08, No Iterations 5
ExecutionTime = 7.35 s  ClockTime = 7 s

scalarTransport execute: age
smoothSolver:  Solving for age, Initial residual = 0.000294799, Final residual = 2.7501e-05, No Iterations 15

Time = 574

smoothSolver:  Solving for Ux, Initial residual = 4.1321e-07, Final residual = 3.46072e-08, No Iterations 5
smoothSolver:  Solving for Uy, Initial residual = 2.65288e-07, Final residual = 2.10553e-08, No Iterations 5
GAMG:  Solving for p, Initial residual = 1.47383e-06, Final residual = 9.99272e-08, No Iterations 2
time step continuity errors : sum local = 2.01512e-07, global = 2.07441e-08, cumulative = 0.0211184
smoothSolver:  Solving for omega, Initial residual = 5.0619e-08, Final residual = 8.80871e-09, No Iterations 3
smoothSolver:  Solving for k, Initial residual = 1.35008e-07, Final residual = 1.15241e-08, No Iterations 5
ExecutionTime = 7.36 s  ClockTime = 7 s

scalarTransport execute: age
smoothSolver:  Solving for age, Initial residual = 0.00029417, Final residual = 2.74429e-05, No Iterations 15

Time = 575

smoothSolver:  Solving for Ux, Initial residual = 4.04504e-07, Final residual = 3.38764e-08, No Iterations 5
smoothSolver:  Solving for Uy, Initial residual = 2.5966e-07, Final residual = 2.06072e-08, No Iterations 5
GAMG:  Solving for p, Initial residual = 1.44309e-06, Final residual = 9.78468e-08, No Iterations 2
time step continuity errors : sum local = 1.97317e-07, global = 2.03208e-08, cumulative = 0.0211184
smoothSolver:  Solving for omega, Initial residual = 4.96937e-08, Final residual = 8.65883e-09, No Iterations 3
smoothSolver:  Solving for k, Initial residual = 1.32053e-07, Final residual = 1.12713e-08, No Iterations 5
ExecutionTime = 7.37 s  ClockTime = 7 s

scalarTransport execute: age
smoothSolver:  Solving for age, Initial residual = 0.000293545, Final residual = 2.7385e-05, No Iterations 15

Time = 576

smoothSolver:  Solving for Ux, Initial residual = 3.9599e-07, Final residual = 3.31618e-08, No Iterations 5
smoothSolver:  Solving for Uy, Initial residual = 2.54159e-07, Final residual = 2.01688e-08, No Iterations 5
GAMG:  Solving for p, Initial residual = 1.41299e-06, Final residual = 9.58099e-08, No Iterations 2
time step continuity errors : sum local = 1.93209e-07, global = 1.99079e-08, cumulative = 0.0211184
smoothSolver:  Solving for omega, Initial residual = 4.87712e-08, Final residual = 8.50802e-09, No Iterations 3
smoothSolver:  Solving for k, Initial residual = 1.29163e-07, Final residual = 1.10246e-08, No Iterations 5
ExecutionTime = 7.38 s  ClockTime = 7 s

scalarTransport execute: age
smoothSolver:  Solving for age, Initial residual = 0.000292922, Final residual = 2.73274e-05, No Iterations 15

Time = 577

smoothSolver:  Solving for Ux, Initial residual = 3.87662e-07, Final residual = 3.2463e-08, No Iterations 5
smoothSolver:  Solving for Uy, Initial residual = 2.48782e-07, Final residual = 1.974e-08, No Iterations 5
GAMG:  Solving for p, Initial residual = 1.38354e-06, Final residual = 9.38155e-08, No Iterations 2
time step continuity errors : sum local = 1.89188e-07, global = 1.95045e-08, cumulative = 0.0211184
smoothSolver:  Solving for omega, Initial residual = 4.78537e-08, Final residual = 8.35684e-09, No Iterations 3
smoothSolver:  Solving for k, Initial residual = 1.2634e-07, Final residual = 1.0784e-08, No Iterations 5
ExecutionTime = 7.4 s  ClockTime = 7 s

scalarTransport execute: age
smoothSolver:  Solving for age, Initial residual = 0.000292303, Final residual = 2.727e-05, No Iterations 15

Time = 578

smoothSolver:  Solving for Ux, Initial residual = 3.79517e-07, Final residual = 3.17795e-08, No Iterations 5
smoothSolver:  Solving for Uy, Initial residual = 2.43529e-07, Final residual = 1.93207e-08, No Iterations 5
GAMG:  Solving for p, Initial residual = 1.35471e-06, Final residual = 9.18631e-08, No Iterations 2
time step continuity errors : sum local = 1.8525e-07, global = 1.91095e-08, cumulative = 0.0211184
smoothSolver:  Solving for omega, Initial residual = 4.6943e-08, Final residual = 8.20575e-09, No Iterations 3
smoothSolver:  Solving for k, Initial residual = 1.23583e-07, Final residual = 1.05495e-08, No Iterations 5
ExecutionTime = 7.41 s  ClockTime = 7 s

scalarTransport execute: age
smoothSolver:  Solving for age, Initial residual = 0.000291687, Final residual = 2.72128e-05, No Iterations 15

Time = 579

smoothSolver:  Solving for Ux, Initial residual = 3.71548e-07, Final residual = 3.11108e-08, No Iterations 5
smoothSolver:  Solving for Uy, Initial residual = 2.38395e-07, Final residual = 1.89107e-08, No Iterations 5
GAMG:  Solving for p, Initial residual = 1.3265e-06, Final residual = 8.99519e-08, No Iterations 2
time step continuity errors : sum local = 1.81396e-07, global = 1.87223e-08, cumulative = 0.0211185
smoothSolver:  Solving for omega, Initial residual = 4.60402e-08, Final residual = 8.05511e-09, No Iterations 3
smoothSolver:  Solving for k, Initial residual = 1.20893e-07, Final residual = 1.03209e-08, No Iterations 5
ExecutionTime = 7.42 s  ClockTime = 7 s

scalarTransport execute: age
smoothSolver:  Solving for age, Initial residual = 0.000291074, Final residual = 2.71559e-05, No Iterations 15

Time = 580

smoothSolver:  Solving for Ux, Initial residual = 3.63751e-07, Final residual = 3.04562e-08, No Iterations 5
smoothSolver:  Solving for Uy, Initial residual = 2.33377e-07, Final residual = 1.85101e-08, No Iterations 5
GAMG:  Solving for p, Initial residual = 1.29889e-06, Final residual = 8.80809e-08, No Iterations 2
time step continuity errors : sum local = 1.77623e-07, global = 1.83425e-08, cumulative = 0.0211185
smoothSolver:  Solving for omega, Initial residual = 4.51467e-08, Final residual = 7.90527e-09, No Iterations 3
smoothSolver:  Solving for k, Initial residual = 1.1827e-07, Final residual = 1.00984e-08, No Iterations 5
ExecutionTime = 7.43 s  ClockTime = 7 s

scalarTransport execute: age
smoothSolver:  Solving for age, Initial residual = 0.000290464, Final residual = 2.70992e-05, No Iterations 15

Time = 581

smoothSolver:  Solving for Ux, Initial residual = 3.56119e-07, Final residual = 2.98153e-08, No Iterations 5
smoothSolver:  Solving for Uy, Initial residual = 2.2847e-07, Final residual = 1.81186e-08, No Iterations 5
GAMG:  Solving for p, Initial residual = 1.27187e-06, Final residual = 8.62491e-08, No Iterations 2
time step continuity errors : sum local = 1.7393e-07, global = 1.797e-08, cumulative = 0.0211185
smoothSolver:  Solving for omega, Initial residual = 4.42634e-08, Final residual = 7.75649e-09, No Iterations 3
smoothSolver:  Solving for k, Initial residual = 1.15712e-07, Final residual = 9.8816e-09, No Iterations 5
ExecutionTime = 7.45 s  ClockTime = 7 s

scalarTransport execute: age
smoothSolver:  Solving for age, Initial residual = 0.000289857, Final residual = 2.70426e-05, No Iterations 15

Time = 582

smoothSolver:  Solving for Ux, Initial residual = 3.48646e-07, Final residual = 2.91878e-08, No Iterations 5
smoothSolver:  Solving for Uy, Initial residual = 2.2367e-07, Final residual = 1.77361e-08, No Iterations 5
GAMG:  Solving for p, Initial residual = 1.24542e-06, Final residual = 8.44553e-08, No Iterations 2
time step continuity errors : sum local = 1.70312e-07, global = 1.76045e-08, cumulative = 0.0211185
smoothSolver:  Solving for omega, Initial residual = 4.33911e-08, Final residual = 7.60901e-09, No Iterations 3
smoothSolver:  Solving for k, Initial residual = 1.13219e-07, Final residual = 9.6705e-09, No Iterations 5
ExecutionTime = 7.46 s  ClockTime = 7 s

scalarTransport execute: age
smoothSolver:  Solving for age, Initial residual = 0.000289252, Final residual = 2.69863e-05, No Iterations 15

Time = 583

smoothSolver:  Solving for Ux, Initial residual = 3.41327e-07, Final residual = 2.85732e-08, No Iterations 5
smoothSolver:  Solving for Uy, Initial residual = 2.18975e-07, Final residual = 1.73624e-08, No Iterations 5
GAMG:  Solving for p, Initial residual = 1.21954e-06, Final residual = 8.26982e-08, No Iterations 2
time step continuity errors : sum local = 1.66769e-07, global = 1.72459e-08, cumulative = 0.0211185
smoothSolver:  Solving for omega, Initial residual = 4.25306e-08, Final residual = 7.46301e-09, No Iterations 3
smoothSolver:  Solving for k, Initial residual = 1.10789e-07, Final residual = 9.46498e-09, No Iterations 5
ExecutionTime = 7.47 s  ClockTime = 7 s

scalarTransport execute: age
smoothSolver:  Solving for age, Initial residual = 0.000288649, Final residual = 2.69302e-05, No Iterations 15

Time = 584

smoothSolver:  Solving for Ux, Initial residual = 3.34159e-07, Final residual = 2.79714e-08, No Iterations 5
smoothSolver:  Solving for Uy, Initial residual = 2.14383e-07, Final residual = 1.69973e-08, No Iterations 5
GAMG:  Solving for p, Initial residual = 1.1942e-06, Final residual = 8.09769e-08, No Iterations 2
time step continuity errors : sum local = 1.63298e-07, global = 1.68942e-08, cumulative = 0.0211185
smoothSolver:  Solving for omega, Initial residual = 4.16826e-08, Final residual = 7.31864e-09, No Iterations 3
smoothSolver:  Solving for k, Initial residual = 1.08422e-07, Final residual = 9.26487e-09, No Iterations 5
ExecutionTime = 7.48 s  ClockTime = 7 s

scalarTransport execute: age
smoothSolver:  Solving for age, Initial residual = 0.000288048, Final residual = 2.68744e-05, No Iterations 15

Time = 585

smoothSolver:  Solving for Ux, Initial residual = 3.2714e-07, Final residual = 2.73821e-08, No Iterations 5
smoothSolver:  Solving for Uy, Initial residual = 2.09893e-07, Final residual = 1.66406e-08, No Iterations 5
GAMG:  Solving for p, Initial residual = 1.1694e-06, Final residual = 7.92908e-08, No Iterations 2
time step continuity errors : sum local = 1.59898e-07, global = 1.65493e-08, cumulative = 0.0211186
smoothSolver:  Solving for omega, Initial residual = 4.08478e-08, Final residual = 7.17605e-09, No Iterations 3
smoothSolver:  Solving for k, Initial residual = 1.06114e-07, Final residual = 9.06998e-09, No Iterations 5
ExecutionTime = 7.5 s  ClockTime = 7 s

scalarTransport execute: age
smoothSolver:  Solving for age, Initial residual = 0.000287449, Final residual = 2.68187e-05, No Iterations 15

Time = 586

smoothSolver:  Solving for Ux, Initial residual = 3.20267e-07, Final residual = 2.68051e-08, No Iterations 5
smoothSolver:  Solving for Uy, Initial residual = 2.05504e-07, Final residual = 1.62922e-08, No Iterations 5
GAMG:  Solving for p, Initial residual = 1.14513e-06, Final residual = 7.76393e-08, No Iterations 2
time step continuity errors : sum local = 1.56567e-07, global = 1.62109e-08, cumulative = 0.0211186
smoothSolver:  Solving for omega, Initial residual = 4.00264e-08, Final residual = 7.03532e-09, No Iterations 3
smoothSolver:  Solving for k, Initial residual = 1.03866e-07, Final residual = 8.88008e-09, No Iterations 5
ExecutionTime = 7.51 s  ClockTime = 7 s

scalarTransport execute: age
smoothSolver:  Solving for age, Initial residual = 0.000286851, Final residual = 2.67634e-05, No Iterations 15

Time = 587

smoothSolver:  Solving for Ux, Initial residual = 3.13539e-07, Final residual = 2.62404e-08, No Iterations 5
smoothSolver:  Solving for Uy, Initial residual = 2.01215e-07, Final residual = 1.59519e-08, No Iterations 5
GAMG:  Solving for p, Initial residual = 1.1214e-06, Final residual = 7.6022e-08, No Iterations 2
time step continuity errors : sum local = 1.53306e-07, global = 1.5879e-08, cumulative = 0.0211186
smoothSolver:  Solving for omega, Initial residual = 3.92189e-08, Final residual = 6.89654e-09, No Iterations 3
smoothSolver:  Solving for k, Initial residual = 1.01674e-07, Final residual = 8.69502e-09, No Iterations 5
ExecutionTime = 7.52 s  ClockTime = 7 s

scalarTransport execute: age
smoothSolver:  Solving for age, Initial residual = 0.000286256, Final residual = 2.67083e-05, No Iterations 15

Time = 588

smoothSolver:  Solving for Ux, Initial residual = 3.06955e-07, Final residual = 2.56878e-08, No Iterations 5
smoothSolver:  Solving for Uy, Initial residual = 1.97024e-07, Final residual = 1.56194e-08, No Iterations 5
GAMG:  Solving for p, Initial residual = 1.09817e-06, Final residual = 7.44386e-08, No Iterations 2
time step continuity errors : sum local = 1.50113e-07, global = 1.55536e-08, cumulative = 0.0211186
smoothSolver:  Solving for omega, Initial residual = 3.84253e-08, Final residual = 6.75976e-09, No Iterations 3
smoothSolver:  Solving for k, Initial residual = 9.95386e-08, Final residual = 8.51462e-09, No Iterations 5
ExecutionTime = 7.53 s  ClockTime = 7 s

scalarTransport execute: age
smoothSolver:  Solving for age, Initial residual = 0.000285661, Final residual = 2.66535e-05, No Iterations 15

Time = 589

smoothSolver:  Solving for Ux, Initial residual = 3.00514e-07, Final residual = 2.51472e-08, No Iterations 5
smoothSolver:  Solving for Uy, Initial residual = 1.9293e-07, Final residual = 1.52946e-08, No Iterations 5
GAMG:  Solving for p, Initial residual = 1.07546e-06, Final residual = 7.28888e-08, No Iterations 2
time step continuity errors : sum local = 1.46987e-07, global = 1.52344e-08, cumulative = 0.0211186
smoothSolver:  Solving for omega, Initial residual = 3.76458e-08, Final residual = 6.62504e-09, No Iterations 3
smoothSolver:  Solving for k, Initial residual = 9.74563e-08, Final residual = 8.33873e-09, No Iterations 5
ExecutionTime = 7.55 s  ClockTime = 7 s

scalarTransport execute: age
smoothSolver:  Solving for age, Initial residual = 0.000285067, Final residual = 2.65988e-05, No Iterations 15

Time = 590

smoothSolver:  Solving for Ux, Initial residual = 2.94213e-07, Final residual = 2.46183e-08, No Iterations 5
smoothSolver:  Solving for Uy, Initial residual = 1.8893e-07, Final residual = 1.49772e-08, No Iterations 5
GAMG:  Solving for p, Initial residual = 1.05325e-06, Final residual = 7.1372e-08, No Iterations 2
time step continuity errors : sum local = 1.43929e-07, global = 1.49215e-08, cumulative = 0.0211186
smoothSolver:  Solving for omega, Initial residual = 3.68803e-08, Final residual = 6.49242e-09, No Iterations 3
smoothSolver:  Solving for k, Initial residual = 9.54253e-08, Final residual = 8.16717e-09, No Iterations 5
ExecutionTime = 7.56 s  ClockTime = 7 s

scalarTransport execute: age
smoothSolver:  Solving for age, Initial residual = 0.000284476, Final residual = 2.65445e-05, No Iterations 15

Time = 591

smoothSolver:  Solving for Ux, Initial residual = 2.88051e-07, Final residual = 2.41009e-08, No Iterations 5
smoothSolver:  Solving for Uy, Initial residual = 1.85022e-07, Final residual = 1.46672e-08, No Iterations 5
GAMG:  Solving for p, Initial residual = 1.03152e-06, Final residual = 6.98878e-08, No Iterations 2
time step continuity errors : sum local = 1.40935e-07, global = 1.46146e-08, cumulative = 0.0211186
smoothSolver:  Solving for omega, Initial residual = 3.61285e-08, Final residual = 6.36195e-09, No Iterations 3
smoothSolver:  Solving for k, Initial residual = 9.3444e-08, Final residual = 7.9998e-09, No Iterations 5
ExecutionTime = 7.57 s  ClockTime = 7 s

scalarTransport execute: age
smoothSolver:  Solving for age, Initial residual = 0.000283889, Final residual = 2.64904e-05, No Iterations 15

Time = 592

smoothSolver:  Solving for Ux, Initial residual = 2.82023e-07, Final residual = 2.35947e-08, No Iterations 5
smoothSolver:  Solving for Uy, Initial residual = 1.81201e-07, Final residual = 1.43642e-08, No Iterations 5
GAMG:  Solving for p, Initial residual = 1.01027e-06, Final residual = 6.84352e-08, No Iterations 2
time step continuity errors : sum local = 1.38006e-07, global = 1.43138e-08, cumulative = 0.0211187
smoothSolver:  Solving for omega, Initial residual = 3.53905e-08, Final residual = 6.23365e-09, No Iterations 3
smoothSolver:  Solving for k, Initial residual = 9.15104e-08, Final residual = 7.83644e-09, No Iterations 5
ExecutionTime = 7.58 s  ClockTime = 7 s

scalarTransport execute: age
smoothSolver:  Solving for age, Initial residual = 0.000283305, Final residual = 2.64366e-05, No Iterations 15

Time = 593

smoothSolver:  Solving for Ux, Initial residual = 2.76128e-07, Final residual = 2.30996e-08, No Iterations 5
smoothSolver:  Solving for Uy, Initial residual = 1.77466e-07, Final residual = 1.4068e-08, No Iterations 5
GAMG:  Solving for p, Initial residual = 9.89469e-07, Final residual = 6.70135e-08, No Iterations 2
time step continuity errors : sum local = 1.35139e-07, global = 1.40189e-08, cumulative = 0.0211187
smoothSolver:  Solving for omega, Initial residual = 3.46659e-08, Final residual = 6.10754e-09, No Iterations 3
smoothSolver:  Solving for k, Initial residual = 8.96228e-08, Final residual = 7.67696e-09, No Iterations 5
ExecutionTime = 7.6 s  ClockTime = 7 s


SIMPLE solution converged in 593 iterations

scalarTransport execute: age
smoothSolver:  Solving for age, Initial residual = 0.000282724, Final residual = 2.6383e-05, No Iterations 15

End

