/*---------------------------------------------------------------------------*\
| =========                 |                                                 |
| \\      /  F ield         | OpenFOAM: The Open Source CFD Toolbox           |
|  \\    /   O peration     | Version:  v2012                                 |
|   \\  /    A nd           | Website:  www.openfoam.com                      |
|    \\/     M anipulation  |                                                 |
\*---------------------------------------------------------------------------*/
Build  : _7bdb509494-20201222 OPENFOAM=2012
Arch   : "LSB;label=32;scalar=64"
Exec   : simpleFoam
Date   : Feb 24 2023
Time   : 01:40:42
Host   : johnsDesktop
PID    : 21192
I/O    : uncollated
Case   : /home/john/of_runs/cases/dbl_0_56_881_2
nProcs : 1
trapFpe: Floating point exception trapping enabled (FOAM_SIGFPE).
fileModificationChecking : Monitoring run-time modified files using timeStampMaster (fileModificationSkew 5, maxFileModificationPolls 20)
allowSystemOperations : Allowing user-supplied system call operations

// * * * * * * * * * * * * * * * * * * * * * * * * * * * * * * * * * * * * * //
Create time

Create mesh for time = 0


SIMPLE: convergence criteria
    field p	 tolerance 1e-06
    field U	 tolerance 1e-06
    field "(k|epsilon|omega|f|v2|age)"	 tolerance 1e-05

Reading field p

Reading field U

Reading/calculating face flux field phi

Selecting incompressible transport model Newtonian
Selecting turbulence model type RAS
Selecting RAS turbulence model kOmegaSST
Selecting patchDistMethod meshWave
RAS
{
    RASModel        kOmegaSST;
    turbulence      on;
    printCoeffs     on;
    alphaK1         0.85;
    alphaK2         1;
    alphaOmega1     0.5;
    alphaOmega2     0.856;
    gamma1          0.555556;
    gamma2          0.44;
    beta1           0.075;
    beta2           0.0828;
    betaStar        0.09;
    a1              0.31;
    b1              1;
    c1              10;
    F3              false;
    decayControl    false;
    kInf            0;
    omegaInf        0;
}

No MRF models present

No finite volume options present

Starting time loop

Selecting finite volume options type scalarSemiImplicitSource
    Source: unitySource
    - selecting all cells
    - selected 6508 cell(s) with volume 0.03144
Time = 1

smoothSolver:  Solving for Ux, Initial residual = 0, Final residual = 0, No Iterations 0
smoothSolver:  Solving for Uy, Initial residual = 1, Final residual = 0.0717854, No Iterations 1
GAMG:  Solving for p, Initial residual = 1, Final residual = 0.0698281, No Iterations 6
time step continuity errors : sum local = 0.00444199, global = -0.00113347, cumulative = -0.00113347
smoothSolver:  Solving for omega, Initial residual = 0.151369, Final residual = 0.00838595, No Iterations 3
smoothSolver:  Solving for k, Initial residual = 1, Final residual = 0.0759854, No Iterations 3
ExecutionTime = 0.07 s  ClockTime = 0 s

scalarTransport execute: age
smoothSolver:  Solving for age, Initial residual = 1, Final residual = 0.0967921, No Iterations 6

Time = 2

smoothSolver:  Solving for Ux, Initial residual = 0.458532, Final residual = 0.0457939, No Iterations 5
smoothSolver:  Solving for Uy, Initial residual = 0.236012, Final residual = 0.0156478, No Iterations 5
GAMG:  Solving for p, Initial residual = 0.0747567, Final residual = 0.00425241, No Iterations 3
time step continuity errors : sum local = 0.0295398, global = 0.00483027, cumulative = 0.0036968
smoothSolver:  Solving for omega, Initial residual = 0.0977401, Final residual = 0.00785014, No Iterations 3
smoothSolver:  Solving for k, Initial residual = 0.553771, Final residual = 0.0376787, No Iterations 4
ExecutionTime = 0.08 s  ClockTime = 0 s

scalarTransport execute: age
smoothSolver:  Solving for age, Initial residual = 0.619729, Final residual = 0.0540563, No Iterations 8

Time = 3

smoothSolver:  Solving for Ux, Initial residual = 0.182398, Final residual = 0.0139343, No Iterations 5
smoothSolver:  Solving for Uy, Initial residual = 0.0973382, Final residual = 0.00907548, No Iterations 4
GAMG:  Solving for p, Initial residual = 0.0580127, Final residual = 0.00289419, No Iterations 3
time step continuity errors : sum local = 0.0137018, global = 0.00193548, cumulative = 0.00563228
smoothSolver:  Solving for omega, Initial residual = 0.0403639, Final residual = 0.00299037, No Iterations 4
smoothSolver:  Solving for k, Initial residual = 0.374142, Final residual = 0.0332934, No Iterations 4
ExecutionTime = 0.09 s  ClockTime = 0 s

scalarTransport execute: age
smoothSolver:  Solving for age, Initial residual = 0.381219, Final residual = 0.0328513, No Iterations 9

Time = 4

smoothSolver:  Solving for Ux, Initial residual = 0.105627, Final residual = 0.00707387, No Iterations 5
smoothSolver:  Solving for Uy, Initial residual = 0.0647683, Final residual = 0.00577552, No Iterations 4
GAMG:  Solving for p, Initial residual = 0.0801549, Final residual = 0.0047412, No Iterations 2
time step continuity errors : sum local = 0.0147715, global = 0.0025807, cumulative = 0.00821298
smoothSolver:  Solving for omega, Initial residual = 0.0255333, Final residual = 0.00207491, No Iterations 4
smoothSolver:  Solving for k, Initial residual = 0.279888, Final residual = 0.0167443, No Iterations 5
ExecutionTime = 0.1 s  ClockTime = 1 s

scalarTransport execute: age
smoothSolver:  Solving for age, Initial residual = 0.256059, Final residual = 0.0229382, No Iterations 10

Time = 5

smoothSolver:  Solving for Ux, Initial residual = 0.0808859, Final residual = 0.00559257, No Iterations 5
smoothSolver:  Solving for Uy, Initial residual = 0.0536497, Final residual = 0.00487517, No Iterations 4
GAMG:  Solving for p, Initial residual = 0.0708842, Final residual = 0.00403697, No Iterations 2
time step continuity errors : sum local = 0.0128427, global = 0.00236191, cumulative = 0.0105749
smoothSolver:  Solving for omega, Initial residual = 0.0165301, Final residual = 0.0014468, No Iterations 4
smoothSolver:  Solving for k, Initial residual = 0.212222, Final residual = 0.0138875, No Iterations 5
ExecutionTime = 0.11 s  ClockTime = 1 s

scalarTransport execute: age
smoothSolver:  Solving for age, Initial residual = 0.191892, Final residual = 0.018582, No Iterations 10

Time = 6

smoothSolver:  Solving for Ux, Initial residual = 0.0674305, Final residual = 0.00467081, No Iterations 5
smoothSolver:  Solving for Uy, Initial residual = 0.0467117, Final residual = 0.00439063, No Iterations 4
GAMG:  Solving for p, Initial residual = 0.0585536, Final residual = 0.00291852, No Iterations 2
time step continuity errors : sum local = 0.00964809, global = 0.00154558, cumulative = 0.0121205
smoothSolver:  Solving for omega, Initial residual = 0.0119142, Final residual = 0.00103937, No Iterations 4
smoothSolver:  Solving for k, Initial residual = 0.167374, Final residual = 0.0115973, No Iterations 5
ExecutionTime = 0.13 s  ClockTime = 1 s

scalarTransport execute: age
smoothSolver:  Solving for age, Initial residual = 0.153456, Final residual = 0.0152905, No Iterations 10

Time = 7

smoothSolver:  Solving for Ux, Initial residual = 0.0607759, Final residual = 0.00429907, No Iterations 5
smoothSolver:  Solving for Uy, Initial residual = 0.041907, Final residual = 0.00263076, No Iterations 5
GAMG:  Solving for p, Initial residual = 0.0515575, Final residual = 0.00244523, No Iterations 2
time step continuity errors : sum local = 0.00825754, global = 0.00125093, cumulative = 0.0133714
smoothSolver:  Solving for omega, Initial residual = 0.00904109, Final residual = 0.000766518, No Iterations 4
smoothSolver:  Solving for k, Initial residual = 0.136673, Final residual = 0.00982859, No Iterations 5
ExecutionTime = 0.14 s  ClockTime = 1 s

scalarTransport execute: age
smoothSolver:  Solving for age, Initial residual = 0.130229, Final residual = 0.0113783, No Iterations 11

Time = 8

smoothSolver:  Solving for Ux, Initial residual = 0.0565867, Final residual = 0.00405278, No Iterations 5
smoothSolver:  Solving for Uy, Initial residual = 0.0398101, Final residual = 0.00252608, No Iterations 5
GAMG:  Solving for p, Initial residual = 0.0505012, Final residual = 0.00255591, No Iterations 2
time step continuity errors : sum local = 0.0087799, global = 0.00102648, cumulative = 0.0143979
smoothSolver:  Solving for omega, Initial residual = 0.00700934, Final residual = 0.000583886, No Iterations 4
smoothSolver:  Solving for k, Initial residual = 0.114591, Final residual = 0.00843338, No Iterations 5
ExecutionTime = 0.15 s  ClockTime = 1 s

scalarTransport execute: age
smoothSolver:  Solving for age, Initial residual = 0.11426, Final residual = 0.0101604, No Iterations 11

Time = 9

smoothSolver:  Solving for Ux, Initial residual = 0.0531745, Final residual = 0.0037623, No Iterations 5
smoothSolver:  Solving for Uy, Initial residual = 0.0380336, Final residual = 0.00242177, No Iterations 5
GAMG:  Solving for p, Initial residual = 0.051292, Final residual = 0.00277475, No Iterations 2
time step continuity errors : sum local = 0.00966417, global = 0.000989294, cumulative = 0.0153872
smoothSolver:  Solving for omega, Initial residual = 0.00592517, Final residual = 0.000458734, No Iterations 4
smoothSolver:  Solving for k, Initial residual = 0.0984385, Final residual = 0.00732145, No Iterations 5
ExecutionTime = 0.16 s  ClockTime = 1 s

scalarTransport execute: age
smoothSolver:  Solving for age, Initial residual = 0.103367, Final residual = 0.0094362, No Iterations 11

Time = 10

smoothSolver:  Solving for Ux, Initial residual = 0.049786, Final residual = 0.00347244, No Iterations 5
smoothSolver:  Solving for Uy, Initial residual = 0.0373848, Final residual = 0.00370632, No Iterations 4
GAMG:  Solving for p, Initial residual = 0.053754, Final residual = 0.00257564, No Iterations 2
time step continuity errors : sum local = 0.00900877, global = 0.00104151, cumulative = 0.0164287
smoothSolver:  Solving for omega, Initial residual = 0.00513855, Final residual = 0.000371639, No Iterations 4
smoothSolver:  Solving for k, Initial residual = 0.0864199, Final residual = 0.00643317, No Iterations 5
ExecutionTime = 0.18 s  ClockTime = 1 s

scalarTransport execute: age
smoothSolver:  Solving for age, Initial residual = 0.0946341, Final residual = 0.00875387, No Iterations 11

Time = 11

smoothSolver:  Solving for Ux, Initial residual = 0.0468899, Final residual = 0.00314678, No Iterations 5
smoothSolver:  Solving for Uy, Initial residual = 0.0371202, Final residual = 0.00356623, No Iterations 4
GAMG:  Solving for p, Initial residual = 0.0542505, Final residual = 0.00262441, No Iterations 2
time step continuity errors : sum local = 0.00914802, global = 0.00108559, cumulative = 0.0175143
smoothSolver:  Solving for omega, Initial residual = 0.00478948, Final residual = 0.000308191, No Iterations 4
smoothSolver:  Solving for k, Initial residual = 0.077497, Final residual = 0.00569965, No Iterations 5
ExecutionTime = 0.19 s  ClockTime = 1 s

scalarTransport execute: age
smoothSolver:  Solving for age, Initial residual = 0.087123, Final residual = 0.00802916, No Iterations 11

Time = 12

smoothSolver:  Solving for Ux, Initial residual = 0.0445818, Final residual = 0.00285654, No Iterations 5
smoothSolver:  Solving for Uy, Initial residual = 0.0367709, Final residual = 0.00340892, No Iterations 4
GAMG:  Solving for p, Initial residual = 0.0553645, Final residual = 0.00273175, No Iterations 2
time step continuity errors : sum local = 0.00949246, global = 0.00118121, cumulative = 0.0186955
smoothSolver:  Solving for omega, Initial residual = 0.00452523, Final residual = 0.000258428, No Iterations 4
smoothSolver:  Solving for k, Initial residual = 0.0706884, Final residual = 0.00508762, No Iterations 5
ExecutionTime = 0.2 s  ClockTime = 1 s

scalarTransport execute: age
smoothSolver:  Solving for age, Initial residual = 0.0797755, Final residual = 0.00740156, No Iterations 11

Time = 13

smoothSolver:  Solving for Ux, Initial residual = 0.0424345, Final residual = 0.00260496, No Iterations 5
smoothSolver:  Solving for Uy, Initial residual = 0.0359816, Final residual = 0.00321389, No Iterations 4
GAMG:  Solving for p, Initial residual = 0.0555232, Final residual = 0.00290434, No Iterations 2
time step continuity errors : sum local = 0.0101046, global = 0.00130307, cumulative = 0.0199985
smoothSolver:  Solving for omega, Initial residual = 0.00421409, Final residual = 0.000385052, No Iterations 3
smoothSolver:  Solving for k, Initial residual = 0.0654366, Final residual = 0.00458308, No Iterations 5
ExecutionTime = 0.21 s  ClockTime = 1 s

scalarTransport execute: age
smoothSolver:  Solving for age, Initial residual = 0.0728252, Final residual = 0.00690396, No Iterations 11

Time = 14

smoothSolver:  Solving for Ux, Initial residual = 0.040708, Final residual = 0.00391598, No Iterations 4
smoothSolver:  Solving for Uy, Initial residual = 0.034667, Final residual = 0.00300059, No Iterations 4
GAMG:  Solving for p, Initial residual = 0.0550116, Final residual = 0.0029882, No Iterations 2
time step continuity errors : sum local = 0.0103664, global = 0.00143779, cumulative = 0.0214363
smoothSolver:  Solving for omega, Initial residual = 0.0040403, Final residual = 0.000336441, No Iterations 3
smoothSolver:  Solving for k, Initial residual = 0.0611522, Final residual = 0.00414094, No Iterations 5
ExecutionTime = 0.23 s  ClockTime = 1 s

scalarTransport execute: age
smoothSolver:  Solving for age, Initial residual = 0.0661436, Final residual = 0.00650225, No Iterations 11

Time = 15

smoothSolver:  Solving for Ux, Initial residual = 0.0395425, Final residual = 0.00369277, No Iterations 4
smoothSolver:  Solving for Uy, Initial residual = 0.0329162, Final residual = 0.00276841, No Iterations 4
GAMG:  Solving for p, Initial residual = 0.054423, Final residual = 0.00320114, No Iterations 2
time step continuity errors : sum local = 0.0111094, global = 0.00157056, cumulative = 0.0230069
smoothSolver:  Solving for omega, Initial residual = 0.00380452, Final residual = 0.000295435, No Iterations 3
smoothSolver:  Solving for k, Initial residual = 0.0572199, Final residual = 0.00374152, No Iterations 5
ExecutionTime = 0.24 s  ClockTime = 1 s

scalarTransport execute: age
smoothSolver:  Solving for age, Initial residual = 0.0610074, Final residual = 0.0053319, No Iterations 12

Time = 16

smoothSolver:  Solving for Ux, Initial residual = 0.0382977, Final residual = 0.00349009, No Iterations 4
smoothSolver:  Solving for Uy, Initial residual = 0.031342, Final residual = 0.00254871, No Iterations 4
GAMG:  Solving for p, Initial residual = 0.0540186, Final residual = 0.00344026, No Iterations 2
time step continuity errors : sum local = 0.0119675, global = 0.00169777, cumulative = 0.0247047
smoothSolver:  Solving for omega, Initial residual = 0.00363527, Final residual = 0.000260861, No Iterations 3
smoothSolver:  Solving for k, Initial residual = 0.0531863, Final residual = 0.00338313, No Iterations 5
ExecutionTime = 0.25 s  ClockTime = 1 s

scalarTransport execute: age
smoothSolver:  Solving for age, Initial residual = 0.0567194, Final residual = 0.00507063, No Iterations 12

Time = 17

smoothSolver:  Solving for Ux, Initial residual = 0.037076, Final residual = 0.00328038, No Iterations 4
smoothSolver:  Solving for Uy, Initial residual = 0.0297272, Final residual = 0.0023537, No Iterations 4
GAMG:  Solving for p, Initial residual = 0.0541599, Final residual = 0.00359156, No Iterations 2
time step continuity errors : sum local = 0.0125574, global = 0.00177284, cumulative = 0.0264775
smoothSolver:  Solving for omega, Initial residual = 0.0033929, Final residual = 0.000233112, No Iterations 3
smoothSolver:  Solving for k, Initial residual = 0.0491019, Final residual = 0.00306396, No Iterations 5
ExecutionTime = 0.26 s  ClockTime = 1 s

scalarTransport execute: age
smoothSolver:  Solving for age, Initial residual = 0.0519339, Final residual = 0.00473022, No Iterations 12

Time = 18

smoothSolver:  Solving for Ux, Initial residual = 0.0354513, Final residual = 0.00305898, No Iterations 4
smoothSolver:  Solving for Uy, Initial residual = 0.0281134, Final residual = 0.00218105, No Iterations 4
GAMG:  Solving for p, Initial residual = 0.054401, Final residual = 0.00363557, No Iterations 2
time step continuity errors : sum local = 0.0127163, global = 0.00181721, cumulative = 0.0282947
smoothSolver:  Solving for omega, Initial residual = 0.0032196, Final residual = 0.000210124, No Iterations 3
smoothSolver:  Solving for k, Initial residual = 0.0452145, Final residual = 0.00277828, No Iterations 5
ExecutionTime = 0.28 s  ClockTime = 1 s

scalarTransport execute: age
smoothSolver:  Solving for age, Initial residual = 0.0474824, Final residual = 0.00447345, No Iterations 12

Time = 19

smoothSolver:  Solving for Ux, Initial residual = 0.0337638, Final residual = 0.00285767, No Iterations 4
smoothSolver:  Solving for Uy, Initial residual = 0.0263245, Final residual = 0.00201614, No Iterations 4
GAMG:  Solving for p, Initial residual = 0.0544329, Final residual = 0.00336601, No Iterations 2
time step continuity errors : sum local = 0.0117831, global = 0.00181916, cumulative = 0.0301139
smoothSolver:  Solving for omega, Initial residual = 0.00292177, Final residual = 0.000190716, No Iterations 3
smoothSolver:  Solving for k, Initial residual = 0.0415021, Final residual = 0.00414712, No Iterations 4
ExecutionTime = 0.29 s  ClockTime = 1 s

scalarTransport execute: age
smoothSolver:  Solving for age, Initial residual = 0.0436053, Final residual = 0.00421015, No Iterations 12

Time = 20

smoothSolver:  Solving for Ux, Initial residual = 0.0322384, Final residual = 0.00268279, No Iterations 4
smoothSolver:  Solving for Uy, Initial residual = 0.024387, Final residual = 0.00186005, No Iterations 4
GAMG:  Solving for p, Initial residual = 0.0536068, Final residual = 0.00291993, No Iterations 2
time step continuity errors : sum local = 0.0102208, global = 0.00173692, cumulative = 0.0318508
smoothSolver:  Solving for omega, Initial residual = 0.0026627, Final residual = 0.000173822, No Iterations 3
smoothSolver:  Solving for k, Initial residual = 0.038175, Final residual = 0.00376578, No Iterations 4
ExecutionTime = 0.3 s  ClockTime = 1 s

scalarTransport execute: age
smoothSolver:  Solving for age, Initial residual = 0.0404813, Final residual = 0.00394494, No Iterations 12

Time = 21

smoothSolver:  Solving for Ux, Initial residual = 0.0310742, Final residual = 0.00255035, No Iterations 4
smoothSolver:  Solving for Uy, Initial residual = 0.0227034, Final residual = 0.00172141, No Iterations 4
GAMG:  Solving for p, Initial residual = 0.0514769, Final residual = 0.00262961, No Iterations 2
time step continuity errors : sum local = 0.00918464, global = 0.00157364, cumulative = 0.0334244
smoothSolver:  Solving for omega, Initial residual = 0.00247013, Final residual = 0.000158221, No Iterations 3
smoothSolver:  Solving for k, Initial residual = 0.0350699, Final residual = 0.00341208, No Iterations 4
ExecutionTime = 0.31 s  ClockTime = 1 s

scalarTransport execute: age
smoothSolver:  Solving for age, Initial residual = 0.0379466, Final residual = 0.00369669, No Iterations 12

Time = 22

smoothSolver:  Solving for Ux, Initial residual = 0.029826, Final residual = 0.00245522, No Iterations 4
smoothSolver:  Solving for Uy, Initial residual = 0.0212232, Final residual = 0.00160239, No Iterations 4
GAMG:  Solving for p, Initial residual = 0.0484601, Final residual = 0.0025089, No Iterations 2
time step continuity errors : sum local = 0.00872715, global = 0.00140075, cumulative = 0.0348252
smoothSolver:  Solving for omega, Initial residual = 0.0022277, Final residual = 0.000144514, No Iterations 3
smoothSolver:  Solving for k, Initial residual = 0.0320885, Final residual = 0.00309355, No Iterations 4
ExecutionTime = 0.32 s  ClockTime = 1 s

scalarTransport execute: age
smoothSolver:  Solving for age, Initial residual = 0.0350374, Final residual = 0.00343401, No Iterations 12

Time = 23

smoothSolver:  Solving for Ux, Initial residual = 0.0284279, Final residual = 0.0023935, No Iterations 4
smoothSolver:  Solving for Uy, Initial residual = 0.0197351, Final residual = 0.00149893, No Iterations 4
GAMG:  Solving for p, Initial residual = 0.0449024, Final residual = 0.00229513, No Iterations 2
time step continuity errors : sum local = 0.00796836, global = 0.00126445, cumulative = 0.0360896
smoothSolver:  Solving for omega, Initial residual = 0.00209273, Final residual = 0.000134433, No Iterations 3
smoothSolver:  Solving for k, Initial residual = 0.0294065, Final residual = 0.00281033, No Iterations 4
ExecutionTime = 0.34 s  ClockTime = 1 s

scalarTransport execute: age
smoothSolver:  Solving for age, Initial residual = 0.0330939, Final residual = 0.00320182, No Iterations 12

Time = 24

smoothSolver:  Solving for Ux, Initial residual = 0.0269085, Final residual = 0.00234406, No Iterations 4
smoothSolver:  Solving for Uy, Initial residual = 0.018379, Final residual = 0.00141525, No Iterations 4
GAMG:  Solving for p, Initial residual = 0.040937, Final residual = 0.00204334, No Iterations 2
time step continuity errors : sum local = 0.00710143, global = 0.00111803, cumulative = 0.0372077
smoothSolver:  Solving for omega, Initial residual = 0.00193408, Final residual = 0.00012584, No Iterations 3
smoothSolver:  Solving for k, Initial residual = 0.0270672, Final residual = 0.00256501, No Iterations 4
ExecutionTime = 0.35 s  ClockTime = 1 s

scalarTransport execute: age
smoothSolver:  Solving for age, Initial residual = 0.0315399, Final residual = 0.00301549, No Iterations 12

Time = 25

smoothSolver:  Solving for Ux, Initial residual = 0.0254752, Final residual = 0.00229203, No Iterations 4
smoothSolver:  Solving for Uy, Initial residual = 0.0171193, Final residual = 0.00135766, No Iterations 4
GAMG:  Solving for p, Initial residual = 0.0373982, Final residual = 0.00184966, No Iterations 2
time step continuity errors : sum local = 0.00642493, global = 0.000915327, cumulative = 0.038123
smoothSolver:  Solving for omega, Initial residual = 0.00179075, Final residual = 0.000118733, No Iterations 3
smoothSolver:  Solving for k, Initial residual = 0.0250575, Final residual = 0.00235971, No Iterations 4
ExecutionTime = 0.36 s  ClockTime = 1 s

scalarTransport execute: age
smoothSolver:  Solving for age, Initial residual = 0.0305637, Final residual = 0.00286279, No Iterations 12

Time = 26

smoothSolver:  Solving for Ux, Initial residual = 0.0241423, Final residual = 0.00223823, No Iterations 4
smoothSolver:  Solving for Uy, Initial residual = 0.0159826, Final residual = 0.00132267, No Iterations 4
GAMG:  Solving for p, Initial residual = 0.0345816, Final residual = 0.00168889, No Iterations 2
time step continuity errors : sum local = 0.0058506, global = 0.000661576, cumulative = 0.0387846
smoothSolver:  Solving for omega, Initial residual = 0.00167901, Final residual = 0.000113911, No Iterations 3
smoothSolver:  Solving for k, Initial residual = 0.0233532, Final residual = 0.00218968, No Iterations 4
ExecutionTime = 0.37 s  ClockTime = 1 s

scalarTransport execute: age
smoothSolver:  Solving for age, Initial residual = 0.029893, Final residual = 0.00280054, No Iterations 12

Time = 27

smoothSolver:  Solving for Ux, Initial residual = 0.0228742, Final residual = 0.00218251, No Iterations 4
smoothSolver:  Solving for Uy, Initial residual = 0.0150773, Final residual = 0.00130781, No Iterations 4
GAMG:  Solving for p, Initial residual = 0.0320484, Final residual = 0.00155489, No Iterations 2
time step continuity errors : sum local = 0.00535911, global = 0.000391663, cumulative = 0.0391762
smoothSolver:  Solving for omega, Initial residual = 0.00160279, Final residual = 0.00011183, No Iterations 3
smoothSolver:  Solving for k, Initial residual = 0.0219765, Final residual = 0.00204748, No Iterations 4
ExecutionTime = 0.38 s  ClockTime = 1 s

scalarTransport execute: age
smoothSolver:  Solving for age, Initial residual = 0.029253, Final residual = 0.00272427, No Iterations 12

Time = 28

smoothSolver:  Solving for Ux, Initial residual = 0.0217454, Final residual = 0.00212396, No Iterations 4
smoothSolver:  Solving for Uy, Initial residual = 0.0143515, Final residual = 0.00130638, No Iterations 4
GAMG:  Solving for p, Initial residual = 0.0296578, Final residual = 0.00145616, No Iterations 2
time step continuity errors : sum local = 0.0049895, global = 0.00014304, cumulative = 0.0393193
smoothSolver:  Solving for omega, Initial residual = 0.00155792, Final residual = 0.000111758, No Iterations 3
smoothSolver:  Solving for k, Initial residual = 0.0208739, Final residual = 0.00192956, No Iterations 4
ExecutionTime = 0.4 s  ClockTime = 1 s

scalarTransport execute: age
smoothSolver:  Solving for age, Initial residual = 0.0289173, Final residual = 0.00273342, No Iterations 12

Time = 29

smoothSolver:  Solving for Ux, Initial residual = 0.020772, Final residual = 0.00206358, No Iterations 4
smoothSolver:  Solving for Uy, Initial residual = 0.0136821, Final residual = 0.00130761, No Iterations 4
GAMG:  Solving for p, Initial residual = 0.0276048, Final residual = 0.00136323, No Iterations 2
time step continuity errors : sum local = 0.00464865, global = -4.90573e-05, cumulative = 0.0392702
smoothSolver:  Solving for omega, Initial residual = 0.00153267, Final residual = 0.00011282, No Iterations 3
smoothSolver:  Solving for k, Initial residual = 0.0199716, Final residual = 0.00183358, No Iterations 4
ExecutionTime = 0.41 s  ClockTime = 1 s

scalarTransport execute: age
smoothSolver:  Solving for age, Initial residual = 0.0285777, Final residual = 0.00277279, No Iterations 12

Time = 30

smoothSolver:  Solving for Ux, Initial residual = 0.0198413, Final residual = 0.00123354, No Iterations 5
smoothSolver:  Solving for Uy, Initial residual = 0.0131214, Final residual = 0.0013045, No Iterations 4
GAMG:  Solving for p, Initial residual = 0.0261487, Final residual = 0.00126108, No Iterations 2
time step continuity errors : sum local = 0.00428557, global = -0.00015922, cumulative = 0.039111
smoothSolver:  Solving for omega, Initial residual = 0.00154416, Final residual = 0.000115254, No Iterations 3
smoothSolver:  Solving for k, Initial residual = 0.0191711, Final residual = 0.00175121, No Iterations 4
ExecutionTime = 0.42 s  ClockTime = 1 s

scalarTransport execute: age
smoothSolver:  Solving for age, Initial residual = 0.0282446, Final residual = 0.00277098, No Iterations 12

Time = 31

smoothSolver:  Solving for Ux, Initial residual = 0.0188172, Final residual = 0.00117341, No Iterations 5
smoothSolver:  Solving for Uy, Initial residual = 0.0127421, Final residual = 0.000815598, No Iterations 5
GAMG:  Solving for p, Initial residual = 0.0248152, Final residual = 0.00115804, No Iterations 2
time step continuity errors : sum local = 0.00392596, global = -0.000224897, cumulative = 0.0388861
smoothSolver:  Solving for omega, Initial residual = 0.00154948, Final residual = 0.000117745, No Iterations 3
smoothSolver:  Solving for k, Initial residual = 0.0184675, Final residual = 0.00167805, No Iterations 4
ExecutionTime = 0.43 s  ClockTime = 1 s

scalarTransport execute: age
smoothSolver:  Solving for age, Initial residual = 0.0281439, Final residual = 0.00271404, No Iterations 12

Time = 32

smoothSolver:  Solving for Ux, Initial residual = 0.0181265, Final residual = 0.00113064, No Iterations 5
smoothSolver:  Solving for Uy, Initial residual = 0.0122941, Final residual = 0.000803074, No Iterations 5
GAMG:  Solving for p, Initial residual = 0.0239629, Final residual = 0.00113583, No Iterations 2
time step continuity errors : sum local = 0.00384283, global = -0.000247544, cumulative = 0.0386385
smoothSolver:  Solving for omega, Initial residual = 0.00156296, Final residual = 0.000119746, No Iterations 3
smoothSolver:  Solving for k, Initial residual = 0.0177335, Final residual = 0.00160282, No Iterations 4
ExecutionTime = 0.45 s  ClockTime = 1 s

scalarTransport execute: age
smoothSolver:  Solving for age, Initial residual = 0.0280211, Final residual = 0.00266851, No Iterations 12

Time = 33

smoothSolver:  Solving for Ux, Initial residual = 0.0176117, Final residual = 0.0010914, No Iterations 5
smoothSolver:  Solving for Uy, Initial residual = 0.0120695, Final residual = 0.000796936, No Iterations 5
GAMG:  Solving for p, Initial residual = 0.0236815, Final residual = 0.00118139, No Iterations 2
time step continuity errors : sum local = 0.00399039, global = -0.000230836, cumulative = 0.0384077
smoothSolver:  Solving for omega, Initial residual = 0.00158993, Final residual = 0.000121227, No Iterations 3
smoothSolver:  Solving for k, Initial residual = 0.0170024, Final residual = 0.0015236, No Iterations 4
ExecutionTime = 0.46 s  ClockTime = 1 s

scalarTransport execute: age
smoothSolver:  Solving for age, Initial residual = 0.0277669, Final residual = 0.00259051, No Iterations 12

Time = 34

smoothSolver:  Solving for Ux, Initial residual = 0.0171293, Final residual = 0.00105512, No Iterations 5
smoothSolver:  Solving for Uy, Initial residual = 0.0119581, Final residual = 0.000794988, No Iterations 5
GAMG:  Solving for p, Initial residual = 0.0238678, Final residual = 0.00126742, No Iterations 2
time step continuity errors : sum local = 0.00427464, global = -0.000181061, cumulative = 0.0382266
smoothSolver:  Solving for omega, Initial residual = 0.00162533, Final residual = 0.000121538, No Iterations 3
smoothSolver:  Solving for k, Initial residual = 0.0163639, Final residual = 0.00144083, No Iterations 4
ExecutionTime = 0.47 s  ClockTime = 1 s

scalarTransport execute: age
smoothSolver:  Solving for age, Initial residual = 0.0275287, Final residual = 0.00255482, No Iterations 12

Time = 35

smoothSolver:  Solving for Ux, Initial residual = 0.0167156, Final residual = 0.0010223, No Iterations 5
smoothSolver:  Solving for Uy, Initial residual = 0.0118989, Final residual = 0.000793765, No Iterations 5
GAMG:  Solving for p, Initial residual = 0.0245367, Final residual = 0.0013597, No Iterations 2
time step continuity errors : sum local = 0.00458153, global = -0.000111396, cumulative = 0.0381152
smoothSolver:  Solving for omega, Initial residual = 0.00164493, Final residual = 0.000121191, No Iterations 3
smoothSolver:  Solving for k, Initial residual = 0.0158572, Final residual = 0.00136224, No Iterations 4
ExecutionTime = 0.48 s  ClockTime = 1 s

scalarTransport execute: age
smoothSolver:  Solving for age, Initial residual = 0.0270311, Final residual = 0.00252214, No Iterations 12

Time = 36

smoothSolver:  Solving for Ux, Initial residual = 0.0163622, Final residual = 0.0016325, No Iterations 4
smoothSolver:  Solving for Uy, Initial residual = 0.0118914, Final residual = 0.000789693, No Iterations 5
GAMG:  Solving for p, Initial residual = 0.025286, Final residual = 0.00144549, No Iterations 2
time step continuity errors : sum local = 0.00487321, global = -4.43369e-05, cumulative = 0.0380709
smoothSolver:  Solving for omega, Initial residual = 0.00168293, Final residual = 0.000120137, No Iterations 3
smoothSolver:  Solving for k, Initial residual = 0.0153971, Final residual = 0.00129141, No Iterations 4
ExecutionTime = 0.5 s  ClockTime = 1 s

scalarTransport execute: age
smoothSolver:  Solving for age, Initial residual = 0.0264487, Final residual = 0.00245266, No Iterations 12

Time = 37

smoothSolver:  Solving for Ux, Initial residual = 0.0162441, Final residual = 0.000992492, No Iterations 5
smoothSolver:  Solving for Uy, Initial residual = 0.0118589, Final residual = 0.000779586, No Iterations 5
GAMG:  Solving for p, Initial residual = 0.0266407, Final residual = 0.00162404, No Iterations 2
time step continuity errors : sum local = 0.00545862, global = 5.742e-06, cumulative = 0.0380767
smoothSolver:  Solving for omega, Initial residual = 0.00174456, Final residual = 0.000118114, No Iterations 3
smoothSolver:  Solving for k, Initial residual = 0.0150167, Final residual = 0.00121893, No Iterations 4
ExecutionTime = 0.51 s  ClockTime = 1 s

scalarTransport execute: age
smoothSolver:  Solving for age, Initial residual = 0.0258183, Final residual = 0.00243924, No Iterations 12

Time = 38

smoothSolver:  Solving for Ux, Initial residual = 0.0160858, Final residual = 0.0016085, No Iterations 4
smoothSolver:  Solving for Uy, Initial residual = 0.0119914, Final residual = 0.000774764, No Iterations 5
GAMG:  Solving for p, Initial residual = 0.0269843, Final residual = 0.00177375, No Iterations 2
time step continuity errors : sum local = 0.00591284, global = 3.54666e-05, cumulative = 0.0381121
smoothSolver:  Solving for omega, Initial residual = 0.00165773, Final residual = 0.000114201, No Iterations 3
smoothSolver:  Solving for k, Initial residual = 0.0145432, Final residual = 0.00115119, No Iterations 4
ExecutionTime = 0.52 s  ClockTime = 1 s

scalarTransport execute: age
smoothSolver:  Solving for age, Initial residual = 0.0251471, Final residual = 0.00237772, No Iterations 12

Time = 39

smoothSolver:  Solving for Ux, Initial residual = 0.0160325, Final residual = 0.000980885, No Iterations 5
smoothSolver:  Solving for Uy, Initial residual = 0.0119339, Final residual = 0.000753921, No Iterations 5
GAMG:  Solving for p, Initial residual = 0.0277679, Final residual = 0.00193828, No Iterations 2
time step continuity errors : sum local = 0.0064508, global = 2.87819e-05, cumulative = 0.0381409
smoothSolver:  Solving for omega, Initial residual = 0.00169046, Final residual = 0.000113472, No Iterations 3
smoothSolver:  Solving for k, Initial residual = 0.0141179, Final residual = 0.00108029, No Iterations 4
ExecutionTime = 0.53 s  ClockTime = 1 s

scalarTransport execute: age
smoothSolver:  Solving for age, Initial residual = 0.0249096, Final residual = 0.0023611, No Iterations 12

Time = 40

smoothSolver:  Solving for Ux, Initial residual = 0.0159317, Final residual = 0.000969343, No Iterations 5
smoothSolver:  Solving for Uy, Initial residual = 0.0119093, Final residual = 0.000740197, No Iterations 5
GAMG:  Solving for p, Initial residual = 0.0281758, Final residual = 0.00208411, No Iterations 2
time step continuity errors : sum local = 0.00692163, global = -1.43462e-05, cumulative = 0.0381266
smoothSolver:  Solving for omega, Initial residual = 0.00174991, Final residual = 0.000118718, No Iterations 3
smoothSolver:  Solving for k, Initial residual = 0.0138172, Final residual = 0.00101225, No Iterations 4
ExecutionTime = 0.55 s  ClockTime = 1 s

scalarTransport execute: age
smoothSolver:  Solving for age, Initial residual = 0.0248201, Final residual = 0.00230065, No Iterations 12

Time = 41

smoothSolver:  Solving for Ux, Initial residual = 0.0158705, Final residual = 0.000969613, No Iterations 5
smoothSolver:  Solving for Uy, Initial residual = 0.0118402, Final residual = 0.000725061, No Iterations 5
GAMG:  Solving for p, Initial residual = 0.0282559, Final residual = 0.00215358, No Iterations 2
time step continuity errors : sum local = 0.00715324, global = -0.000106404, cumulative = 0.0380202
smoothSolver:  Solving for omega, Initial residual = 0.00179983, Final residual = 0.000129236, No Iterations 3
smoothSolver:  Solving for k, Initial residual = 0.0135236, Final residual = 0.000949614, No Iterations 4
ExecutionTime = 0.56 s  ClockTime = 1 s

scalarTransport execute: age
smoothSolver:  Solving for age, Initial residual = 0.0254122, Final residual = 0.00230698, No Iterations 12

Time = 42

smoothSolver:  Solving for Ux, Initial residual = 0.0161328, Final residual = 0.00098342, No Iterations 5
smoothSolver:  Solving for Uy, Initial residual = 0.0118166, Final residual = 0.00116837, No Iterations 4
GAMG:  Solving for p, Initial residual = 0.0282712, Final residual = 0.00224175, No Iterations 2
time step continuity errors : sum local = 0.00746767, global = -0.000238163, cumulative = 0.037782
smoothSolver:  Solving for omega, Initial residual = 0.00186524, Final residual = 0.000140855, No Iterations 3
smoothSolver:  Solving for k, Initial residual = 0.0134095, Final residual = 0.000894797, No Iterations 4
ExecutionTime = 0.57 s  ClockTime = 1 s

scalarTransport execute: age
smoothSolver:  Solving for age, Initial residual = 0.0257494, Final residual = 0.00231207, No Iterations 12

Time = 43

smoothSolver:  Solving for Ux, Initial residual = 0.0164234, Final residual = 0.00100936, No Iterations 5
smoothSolver:  Solving for Uy, Initial residual = 0.0119845, Final residual = 0.00116779, No Iterations 4
GAMG:  Solving for p, Initial residual = 0.0286578, Final residual = 0.00214653, No Iterations 2
time step continuity errors : sum local = 0.00718116, global = -0.000280278, cumulative = 0.0375017
smoothSolver:  Solving for omega, Initial residual = 0.00195617, Final residual = 0.000155912, No Iterations 3
smoothSolver:  Solving for k, Initial residual = 0.0134504, Final residual = 0.000856299, No Iterations 4
ExecutionTime = 0.58 s  ClockTime = 1 s

scalarTransport execute: age
smoothSolver:  Solving for age, Initial residual = 0.0265549, Final residual = 0.00234807, No Iterations 12

Time = 44

smoothSolver:  Solving for Ux, Initial residual = 0.0171795, Final residual = 0.00106641, No Iterations 5
smoothSolver:  Solving for Uy, Initial residual = 0.0121927, Final residual = 0.00115762, No Iterations 4
GAMG:  Solving for p, Initial residual = 0.0295956, Final residual = 0.00230738, No Iterations 2
time step continuity errors : sum local = 0.00781552, global = -0.000242132, cumulative = 0.0372596
smoothSolver:  Solving for omega, Initial residual = 0.00207451, Final residual = 0.000172175, No Iterations 3
smoothSolver:  Solving for k, Initial residual = 0.0138991, Final residual = 0.000851875, No Iterations 4
ExecutionTime = 0.59 s  ClockTime = 1 s

scalarTransport execute: age
smoothSolver:  Solving for age, Initial residual = 0.0274266, Final residual = 0.0024188, No Iterations 12

Time = 45

smoothSolver:  Solving for Ux, Initial residual = 0.0181238, Final residual = 0.0011415, No Iterations 5
smoothSolver:  Solving for Uy, Initial residual = 0.0124068, Final residual = 0.00115269, No Iterations 4
GAMG:  Solving for p, Initial residual = 0.0307944, Final residual = 0.00259401, No Iterations 2
time step continuity errors : sum local = 0.00889308, global = -0.000148329, cumulative = 0.0371113
smoothSolver:  Solving for omega, Initial residual = 0.00223032, Final residual = 0.000188405, No Iterations 3
smoothSolver:  Solving for k, Initial residual = 0.0143761, Final residual = 0.000868188, No Iterations 4
ExecutionTime = 0.61 s  ClockTime = 1 s

scalarTransport execute: age
smoothSolver:  Solving for age, Initial residual = 0.0286907, Final residual = 0.00284763, No Iterations 11

Time = 46

smoothSolver:  Solving for Ux, Initial residual = 0.0190468, Final residual = 0.00121383, No Iterations 5
smoothSolver:  Solving for Uy, Initial residual = 0.012823, Final residual = 0.00117053, No Iterations 4
GAMG:  Solving for p, Initial residual = 0.0324177, Final residual = 0.00299934, No Iterations 2
time step continuity errors : sum local = 0.0104015, global = -6.58661e-05, cumulative = 0.0370454
smoothSolver:  Solving for omega, Initial residual = 0.00240024, Final residual = 0.000202449, No Iterations 3
smoothSolver:  Solving for k, Initial residual = 0.0151086, Final residual = 0.000899168, No Iterations 4
ExecutionTime = 0.62 s  ClockTime = 1 s

scalarTransport execute: age
smoothSolver:  Solving for age, Initial residual = 0.0298329, Final residual = 0.00292679, No Iterations 11

Time = 47

smoothSolver:  Solving for Ux, Initial residual = 0.0200113, Final residual = 0.00128661, No Iterations 5
smoothSolver:  Solving for Uy, Initial residual = 0.0132648, Final residual = 0.001206, No Iterations 4
GAMG:  Solving for p, Initial residual = 0.0344158, Final residual = 0.00319706, No Iterations 2
time step continuity errors : sum local = 0.0111671, global = 7.25208e-05, cumulative = 0.0371179
smoothSolver:  Solving for omega, Initial residual = 0.00253983, Final residual = 0.000213185, No Iterations 3
smoothSolver:  Solving for k, Initial residual = 0.0159123, Final residual = 0.000940243, No Iterations 4
ExecutionTime = 0.63 s  ClockTime = 1 s

scalarTransport execute: age
smoothSolver:  Solving for age, Initial residual = 0.0302972, Final residual = 0.00281371, No Iterations 11

Time = 48

smoothSolver:  Solving for Ux, Initial residual = 0.0209621, Final residual = 0.00136786, No Iterations 5
smoothSolver:  Solving for Uy, Initial residual = 0.0138976, Final residual = 0.00126394, No Iterations 4
GAMG:  Solving for p, Initial residual = 0.0360155, Final residual = 0.00329583, No Iterations 2
time step continuity errors : sum local = 0.0116304, global = 0.000276133, cumulative = 0.037394
smoothSolver:  Solving for omega, Initial residual = 0.00272839, Final residual = 0.000221348, No Iterations 3
smoothSolver:  Solving for k, Initial residual = 0.0164368, Final residual = 0.000991036, No Iterations 4
ExecutionTime = 0.64 s  ClockTime = 1 s

scalarTransport execute: age
smoothSolver:  Solving for age, Initial residual = 0.0307252, Final residual = 0.00264077, No Iterations 11

Time = 49

smoothSolver:  Solving for Ux, Initial residual = 0.0219912, Final residual = 0.00145514, No Iterations 5
smoothSolver:  Solving for Uy, Initial residual = 0.0145292, Final residual = 0.00133893, No Iterations 4
GAMG:  Solving for p, Initial residual = 0.0373568, Final residual = 0.00350419, No Iterations 2
time step continuity errors : sum local = 0.0125003, global = 0.000573964, cumulative = 0.037968
smoothSolver:  Solving for omega, Initial residual = 0.00282553, Final residual = 0.000225356, No Iterations 3
smoothSolver:  Solving for k, Initial residual = 0.016674, Final residual = 0.00105237, No Iterations 4
ExecutionTime = 0.66 s  ClockTime = 1 s

scalarTransport execute: age
smoothSolver:  Solving for age, Initial residual = 0.0305957, Final residual = 0.00299361, No Iterations 10

Time = 50

smoothSolver:  Solving for Ux, Initial residual = 0.0228723, Final residual = 0.00153731, No Iterations 5
smoothSolver:  Solving for Uy, Initial residual = 0.0152152, Final residual = 0.00143253, No Iterations 4
GAMG:  Solving for p, Initial residual = 0.0382167, Final residual = 0.00361622, No Iterations 2
time step continuity errors : sum local = 0.0130419, global = 0.00100181, cumulative = 0.0389698
smoothSolver:  Solving for omega, Initial residual = 0.00288663, Final residual = 0.000224336, No Iterations 3
smoothSolver:  Solving for k, Initial residual = 0.0166234, Final residual = 0.00111419, No Iterations 4
ExecutionTime = 0.67 s  ClockTime = 1 s

scalarTransport execute: age
smoothSolver:  Solving for age, Initial residual = 0.0304053, Final residual = 0.003002, No Iterations 10

Time = 51

smoothSolver:  Solving for Ux, Initial residual = 0.0233936, Final residual = 0.00159467, No Iterations 5
smoothSolver:  Solving for Uy, Initial residual = 0.015986, Final residual = 0.00152733, No Iterations 4
GAMG:  Solving for p, Initial residual = 0.0387223, Final residual = 0.00331726, No Iterations 2
time step continuity errors : sum local = 0.012073, global = 0.00146902, cumulative = 0.0404388
smoothSolver:  Solving for omega, Initial residual = 0.00285914, Final residual = 0.000219739, No Iterations 3
smoothSolver:  Solving for k, Initial residual = 0.016276, Final residual = 0.00115374, No Iterations 4
ExecutionTime = 0.68 s  ClockTime = 1 s

scalarTransport execute: age
smoothSolver:  Solving for age, Initial residual = 0.0301135, Final residual = 0.00258778, No Iterations 11

Time = 52

smoothSolver:  Solving for Ux, Initial residual = 0.0235998, Final residual = 0.00161114, No Iterations 5
smoothSolver:  Solving for Uy, Initial residual = 0.0163509, Final residual = 0.00158044, No Iterations 4
GAMG:  Solving for p, Initial residual = 0.039229, Final residual = 0.00278224, No Iterations 2
time step continuity errors : sum local = 0.0101565, global = 0.00184866, cumulative = 0.0422875
smoothSolver:  Solving for omega, Initial residual = 0.00272642, Final residual = 0.000210164, No Iterations 3
smoothSolver:  Solving for k, Initial residual = 0.0155413, Final residual = 0.00116088, No Iterations 4
ExecutionTime = 0.69 s  ClockTime = 1 s

scalarTransport execute: age
smoothSolver:  Solving for age, Initial residual = 0.0297126, Final residual = 0.00259988, No Iterations 11

Time = 53

smoothSolver:  Solving for Ux, Initial residual = 0.0235095, Final residual = 0.00158548, No Iterations 5
smoothSolver:  Solving for Uy, Initial residual = 0.0161967, Final residual = 0.00155003, No Iterations 4
GAMG:  Solving for p, Initial residual = 0.0403689, Final residual = 0.00248661, No Iterations 2
time step continuity errors : sum local = 0.00899345, global = 0.00189637, cumulative = 0.0441839
smoothSolver:  Solving for omega, Initial residual = 0.00249952, Final residual = 0.000196116, No Iterations 3
smoothSolver:  Solving for k, Initial residual = 0.0146121, Final residual = 0.00111704, No Iterations 4
ExecutionTime = 0.7 s  ClockTime = 1 s

scalarTransport execute: age
smoothSolver:  Solving for age, Initial residual = 0.0288528, Final residual = 0.00257187, No Iterations 11

Time = 54

smoothSolver:  Solving for Ux, Initial residual = 0.0228416, Final residual = 0.00150736, No Iterations 5
smoothSolver:  Solving for Uy, Initial residual = 0.0154511, Final residual = 0.0013913, No Iterations 4
GAMG:  Solving for p, Initial residual = 0.0416411, Final residual = 0.00238099, No Iterations 2
time step continuity errors : sum local = 0.00838146, global = 0.00167322, cumulative = 0.0458571
smoothSolver:  Solving for omega, Initial residual = 0.00219444, Final residual = 0.000183855, No Iterations 3
smoothSolver:  Solving for k, Initial residual = 0.0135786, Final residual = 0.00103331, No Iterations 4
ExecutionTime = 0.72 s  ClockTime = 1 s

scalarTransport execute: age
smoothSolver:  Solving for age, Initial residual = 0.026977, Final residual = 0.0025173, No Iterations 11

Time = 55

smoothSolver:  Solving for Ux, Initial residual = 0.021641, Final residual = 0.00140454, No Iterations 5
smoothSolver:  Solving for Uy, Initial residual = 0.0143528, Final residual = 0.00121732, No Iterations 4
GAMG:  Solving for p, Initial residual = 0.0420284, Final residual = 0.00242097, No Iterations 2
time step continuity errors : sum local = 0.00825378, global = 0.00142873, cumulative = 0.0472858
smoothSolver:  Solving for omega, Initial residual = 0.00191701, Final residual = 0.000172602, No Iterations 3
smoothSolver:  Solving for k, Initial residual = 0.0125479, Final residual = 0.000937164, No Iterations 4
ExecutionTime = 0.73 s  ClockTime = 1 s

scalarTransport execute: age
smoothSolver:  Solving for age, Initial residual = 0.0246939, Final residual = 0.00243653, No Iterations 11

Time = 56

smoothSolver:  Solving for Ux, Initial residual = 0.0198186, Final residual = 0.00127735, No Iterations 5
smoothSolver:  Solving for Uy, Initial residual = 0.0127104, Final residual = 0.0010663, No Iterations 4
GAMG:  Solving for p, Initial residual = 0.0413946, Final residual = 0.00275067, No Iterations 2
time step continuity errors : sum local = 0.0091921, global = 0.00120986, cumulative = 0.0484957
smoothSolver:  Solving for omega, Initial residual = 0.00165461, Final residual = 0.000156396, No Iterations 3
smoothSolver:  Solving for k, Initial residual = 0.0116211, Final residual = 0.000846156, No Iterations 4
ExecutionTime = 0.74 s  ClockTime = 1 s

scalarTransport execute: age
smoothSolver:  Solving for age, Initial residual = 0.0227734, Final residual = 0.00199565, No Iterations 12

Time = 57

smoothSolver:  Solving for Ux, Initial residual = 0.0181008, Final residual = 0.00114457, No Iterations 5
smoothSolver:  Solving for Uy, Initial residual = 0.0111324, Final residual = 0.000944169, No Iterations 4
GAMG:  Solving for p, Initial residual = 0.04042, Final residual = 0.00295438, No Iterations 2
time step continuity errors : sum local = 0.00971923, global = 0.000951048, cumulative = 0.0494467
smoothSolver:  Solving for omega, Initial residual = 0.00145776, Final residual = 0.000139986, No Iterations 3
smoothSolver:  Solving for k, Initial residual = 0.0109476, Final residual = 0.000773453, No Iterations 4
ExecutionTime = 0.75 s  ClockTime = 1 s

scalarTransport execute: age
smoothSolver:  Solving for age, Initial residual = 0.0211223, Final residual = 0.00193244, No Iterations 12

Time = 58

smoothSolver:  Solving for Ux, Initial residual = 0.0167326, Final residual = 0.00104617, No Iterations 5
smoothSolver:  Solving for Uy, Initial residual = 0.0101352, Final residual = 0.000898701, No Iterations 4
GAMG:  Solving for p, Initial residual = 0.0388505, Final residual = 0.00302244, No Iterations 2
time step continuity errors : sum local = 0.00979843, global = 0.000675955, cumulative = 0.0501227
smoothSolver:  Solving for omega, Initial residual = 0.00136194, Final residual = 0.000126156, No Iterations 3
smoothSolver:  Solving for k, Initial residual = 0.0105925, Final residual = 0.000715822, No Iterations 4
ExecutionTime = 0.77 s  ClockTime = 1 s

scalarTransport execute: age
smoothSolver:  Solving for age, Initial residual = 0.0202341, Final residual = 0.00191339, No Iterations 12

Time = 59

smoothSolver:  Solving for Ux, Initial residual = 0.0153766, Final residual = 0.000976592, No Iterations 5
smoothSolver:  Solving for Uy, Initial residual = 0.00978726, Final residual = 0.000906279, No Iterations 4
GAMG:  Solving for p, Initial residual = 0.0363903, Final residual = 0.00278114, No Iterations 2
time step continuity errors : sum local = 0.00893645, global = 0.000387772, cumulative = 0.0505104
smoothSolver:  Solving for omega, Initial residual = 0.00133545, Final residual = 0.000115479, No Iterations 3
smoothSolver:  Solving for k, Initial residual = 0.0103656, Final residual = 0.00067128, No Iterations 4
ExecutionTime = 0.78 s  ClockTime = 1 s

scalarTransport execute: age
smoothSolver:  Solving for age, Initial residual = 0.0196095, Final residual = 0.00188405, No Iterations 12

Time = 60

smoothSolver:  Solving for Ux, Initial residual = 0.0141758, Final residual = 0.000911744, No Iterations 5
smoothSolver:  Solving for Uy, Initial residual = 0.00972347, Final residual = 0.000904272, No Iterations 4
GAMG:  Solving for p, Initial residual = 0.0329679, Final residual = 0.00242537, No Iterations 2
time step continuity errors : sum local = 0.00775355, global = 5.11115e-05, cumulative = 0.0505616
smoothSolver:  Solving for omega, Initial residual = 0.00128941, Final residual = 0.000106946, No Iterations 3
smoothSolver:  Solving for k, Initial residual = 0.0100177, Final residual = 0.000638697, No Iterations 4
ExecutionTime = 0.79 s  ClockTime = 1 s

scalarTransport execute: age
smoothSolver:  Solving for age, Initial residual = 0.0189855, Final residual = 0.0018006, No Iterations 12

Time = 61

smoothSolver:  Solving for Ux, Initial residual = 0.0131616, Final residual = 0.000845316, No Iterations 5
smoothSolver:  Solving for Uy, Initial residual = 0.00953426, Final residual = 0.000853533, No Iterations 4
GAMG:  Solving for p, Initial residual = 0.0302203, Final residual = 0.00219378, No Iterations 2
time step continuity errors : sum local = 0.00699613, global = -0.000361825, cumulative = 0.0501997
smoothSolver:  Solving for omega, Initial residual = 0.00123626, Final residual = 9.82227e-05, No Iterations 3
smoothSolver:  Solving for k, Initial residual = 0.00950841, Final residual = 0.000609823, No Iterations 4
ExecutionTime = 0.8 s  ClockTime = 1 s

scalarTransport execute: age
smoothSolver:  Solving for age, Initial residual = 0.0182203, Final residual = 0.00165752, No Iterations 12

Time = 62

smoothSolver:  Solving for Ux, Initial residual = 0.0123131, Final residual = 0.000779045, No Iterations 5
smoothSolver:  Solving for Uy, Initial residual = 0.00910427, Final residual = 0.000767434, No Iterations 4
GAMG:  Solving for p, Initial residual = 0.0285406, Final residual = 0.00171203, No Iterations 2
time step continuity errors : sum local = 0.00545154, global = -0.000718611, cumulative = 0.0494811
smoothSolver:  Solving for omega, Initial residual = 0.00117336, Final residual = 9.05675e-05, No Iterations 3
smoothSolver:  Solving for k, Initial residual = 0.00890835, Final residual = 0.000580557, No Iterations 4
ExecutionTime = 0.81 s  ClockTime = 1 s

scalarTransport execute: age
smoothSolver:  Solving for age, Initial residual = 0.0173369, Final residual = 0.00147692, No Iterations 12

Time = 63

smoothSolver:  Solving for Ux, Initial residual = 0.0114088, Final residual = 0.000693389, No Iterations 5
smoothSolver:  Solving for Uy, Initial residual = 0.0084855, Final residual = 0.00066152, No Iterations 4
GAMG:  Solving for p, Initial residual = 0.0269534, Final residual = 0.00153144, No Iterations 2
time step continuity errors : sum local = 0.00489697, global = -0.000761783, cumulative = 0.0487193
smoothSolver:  Solving for omega, Initial residual = 0.00113819, Final residual = 8.52235e-05, No Iterations 3
smoothSolver:  Solving for k, Initial residual = 0.00838962, Final residual = 0.000554293, No Iterations 4
ExecutionTime = 0.83 s  ClockTime = 1 s

scalarTransport execute: age
smoothSolver:  Solving for age, Initial residual = 0.0166884, Final residual = 0.00154588, No Iterations 11

Time = 64

smoothSolver:  Solving for Ux, Initial residual = 0.0105031, Final residual = 0.00102982, No Iterations 4
smoothSolver:  Solving for Uy, Initial residual = 0.00805478, Final residual = 0.000578751, No Iterations 4
GAMG:  Solving for p, Initial residual = 0.0257524, Final residual = 0.00115091, No Iterations 2
time step continuity errors : sum local = 0.00374457, global = -0.000701089, cumulative = 0.0480182
smoothSolver:  Solving for omega, Initial residual = 0.00105702, Final residual = 8.15025e-05, No Iterations 3
smoothSolver:  Solving for k, Initial residual = 0.00806903, Final residual = 0.000540963, No Iterations 4
ExecutionTime = 0.84 s  ClockTime = 1 s

scalarTransport execute: age
smoothSolver:  Solving for age, Initial residual = 0.0157623, Final residual = 0.00144121, No Iterations 11

Time = 65

smoothSolver:  Solving for Ux, Initial residual = 0.0100307, Final residual = 0.000986525, No Iterations 4
smoothSolver:  Solving for Uy, Initial residual = 0.00758907, Final residual = 0.000551613, No Iterations 4
GAMG:  Solving for p, Initial residual = 0.0250095, Final residual = 0.00157554, No Iterations 2
time step continuity errors : sum local = 0.00516449, global = -0.000627161, cumulative = 0.0473911
smoothSolver:  Solving for omega, Initial residual = 0.000990269, Final residual = 7.57465e-05, No Iterations 3
smoothSolver:  Solving for k, Initial residual = 0.0080147, Final residual = 0.000536934, No Iterations 4
ExecutionTime = 0.85 s  ClockTime = 1 s

scalarTransport execute: age
smoothSolver:  Solving for age, Initial residual = 0.0148765, Final residual = 0.0013601, No Iterations 11

Time = 66

smoothSolver:  Solving for Ux, Initial residual = 0.00980067, Final residual = 0.000593226, No Iterations 5
smoothSolver:  Solving for Uy, Initial residual = 0.00697053, Final residual = 0.000541854, No Iterations 4
GAMG:  Solving for p, Initial residual = 0.0247893, Final residual = 0.00201391, No Iterations 2
time step continuity errors : sum local = 0.00660283, global = -0.000550323, cumulative = 0.0468408
smoothSolver:  Solving for omega, Initial residual = 0.000961639, Final residual = 7.29504e-05, No Iterations 3
smoothSolver:  Solving for k, Initial residual = 0.00799519, Final residual = 0.00053086, No Iterations 4
ExecutionTime = 0.86 s  ClockTime = 1 s

scalarTransport execute: age
smoothSolver:  Solving for age, Initial residual = 0.0144612, Final residual = 0.00131881, No Iterations 11

Time = 67

smoothSolver:  Solving for Ux, Initial residual = 0.00959462, Final residual = 0.000608417, No Iterations 5
smoothSolver:  Solving for Uy, Initial residual = 0.00661522, Final residual = 0.000553175, No Iterations 4
GAMG:  Solving for p, Initial residual = 0.0228961, Final residual = 0.00163633, No Iterations 2
time step continuity errors : sum local = 0.00537044, global = -0.000403274, cumulative = 0.0464375
smoothSolver:  Solving for omega, Initial residual = 0.00100386, Final residual = 7.05999e-05, No Iterations 3
smoothSolver:  Solving for k, Initial residual = 0.00779277, Final residual = 0.000514865, No Iterations 4
ExecutionTime = 0.88 s  ClockTime = 1 s

scalarTransport execute: age
smoothSolver:  Solving for age, Initial residual = 0.0142059, Final residual = 0.00126776, No Iterations 11

Time = 68

smoothSolver:  Solving for Ux, Initial residual = 0.00952197, Final residual = 0.000625761, No Iterations 5
smoothSolver:  Solving for Uy, Initial residual = 0.00661936, Final residual = 0.000575192, No Iterations 4
GAMG:  Solving for p, Initial residual = 0.0212519, Final residual = 0.00144576, No Iterations 2
time step continuity errors : sum local = 0.0047648, global = -0.000173117, cumulative = 0.0462644
smoothSolver:  Solving for omega, Initial residual = 0.00100921, Final residual = 6.88185e-05, No Iterations 3
smoothSolver:  Solving for k, Initial residual = 0.00760271, Final residual = 0.000503441, No Iterations 4
ExecutionTime = 0.89 s  ClockTime = 1 s

scalarTransport execute: age
smoothSolver:  Solving for age, Initial residual = 0.0138704, Final residual = 0.00122892, No Iterations 11

Time = 69

smoothSolver:  Solving for Ux, Initial residual = 0.00943099, Final residual = 0.000633835, No Iterations 5
smoothSolver:  Solving for Uy, Initial residual = 0.00670062, Final residual = 0.000585161, No Iterations 4
GAMG:  Solving for p, Initial residual = 0.0212407, Final residual = 0.00140748, No Iterations 2
time step continuity errors : sum local = 0.00465106, global = 0.000102276, cumulative = 0.0463666
smoothSolver:  Solving for omega, Initial residual = 0.000967613, Final residual = 6.62453e-05, No Iterations 3
smoothSolver:  Solving for k, Initial residual = 0.0075828, Final residual = 0.000496663, No Iterations 4
ExecutionTime = 0.9 s  ClockTime = 1 s

scalarTransport execute: age
smoothSolver:  Solving for age, Initial residual = 0.0135564, Final residual = 0.00120988, No Iterations 11

Time = 70

smoothSolver:  Solving for Ux, Initial residual = 0.00930593, Final residual = 0.000626805, No Iterations 5
smoothSolver:  Solving for Uy, Initial residual = 0.00693869, Final residual = 0.000568556, No Iterations 4
GAMG:  Solving for p, Initial residual = 0.0218366, Final residual = 0.00121141, No Iterations 2
time step continuity errors : sum local = 0.00400088, global = 0.000294228, cumulative = 0.0466609
smoothSolver:  Solving for omega, Initial residual = 0.000906552, Final residual = 6.31998e-05, No Iterations 3
smoothSolver:  Solving for k, Initial residual = 0.0075276, Final residual = 0.000491687, No Iterations 4
ExecutionTime = 0.91 s  ClockTime = 1 s

scalarTransport execute: age
smoothSolver:  Solving for age, Initial residual = 0.0131941, Final residual = 0.00120091, No Iterations 11

Time = 71

smoothSolver:  Solving for Ux, Initial residual = 0.00917543, Final residual = 0.000613018, No Iterations 5
smoothSolver:  Solving for Uy, Initial residual = 0.0063482, Final residual = 0.000527195, No Iterations 4
GAMG:  Solving for p, Initial residual = 0.0220791, Final residual = 0.00118086, No Iterations 2
time step continuity errors : sum local = 0.00387296, global = 0.000368313, cumulative = 0.0470292
smoothSolver:  Solving for omega, Initial residual = 0.000815392, Final residual = 6.10662e-05, No Iterations 3
smoothSolver:  Solving for k, Initial residual = 0.00731277, Final residual = 0.000485371, No Iterations 4
ExecutionTime = 0.92 s  ClockTime = 1 s

scalarTransport execute: age
smoothSolver:  Solving for age, Initial residual = 0.0128009, Final residual = 0.00118866, No Iterations 11

Time = 72

smoothSolver:  Solving for Ux, Initial residual = 0.00884569, Final residual = 0.000584729, No Iterations 5
smoothSolver:  Solving for Uy, Initial residual = 0.00613122, Final residual = 0.000519158, No Iterations 4
GAMG:  Solving for p, Initial residual = 0.021858, Final residual = 0.00133076, No Iterations 2
time step continuity errors : sum local = 0.00433616, global = 0.000363195, cumulative = 0.0473924
smoothSolver:  Solving for omega, Initial residual = 0.00074677, Final residual = 5.89201e-05, No Iterations 3
smoothSolver:  Solving for k, Initial residual = 0.0071482, Final residual = 0.000477332, No Iterations 4
ExecutionTime = 0.94 s  ClockTime = 1 s

scalarTransport execute: age
smoothSolver:  Solving for age, Initial residual = 0.0123665, Final residual = 0.00119505, No Iterations 11

Time = 73

smoothSolver:  Solving for Ux, Initial residual = 0.0083904, Final residual = 0.000551818, No Iterations 5
smoothSolver:  Solving for Uy, Initial residual = 0.00599558, Final residual = 0.000528615, No Iterations 4
GAMG:  Solving for p, Initial residual = 0.0215024, Final residual = 0.00145541, No Iterations 2
time step continuity errors : sum local = 0.00472061, global = 0.000294219, cumulative = 0.0476866
smoothSolver:  Solving for omega, Initial residual = 0.000726637, Final residual = 5.74085e-05, No Iterations 3
smoothSolver:  Solving for k, Initial residual = 0.00704853, Final residual = 0.000466199, No Iterations 4
ExecutionTime = 0.95 s  ClockTime = 1 s

scalarTransport execute: age
smoothSolver:  Solving for age, Initial residual = 0.0122134, Final residual = 0.00121145, No Iterations 11

Time = 74

smoothSolver:  Solving for Ux, Initial residual = 0.0080479, Final residual = 0.000529399, No Iterations 5
smoothSolver:  Solving for Uy, Initial residual = 0.00591356, Final residual = 0.000545584, No Iterations 4
GAMG:  Solving for p, Initial residual = 0.0204545, Final residual = 0.00147686, No Iterations 2
time step continuity errors : sum local = 0.00477449, global = 0.000184181, cumulative = 0.0478708
smoothSolver:  Solving for omega, Initial residual = 0.000729657, Final residual = 5.72956e-05, No Iterations 3
smoothSolver:  Solving for k, Initial residual = 0.00690812, Final residual = 0.000453599, No Iterations 4
ExecutionTime = 0.96 s  ClockTime = 1 s

scalarTransport execute: age
smoothSolver:  Solving for age, Initial residual = 0.0120837, Final residual = 0.00120642, No Iterations 11

Time = 75

smoothSolver:  Solving for Ux, Initial residual = 0.007833, Final residual = 0.000524545, No Iterations 5
smoothSolver:  Solving for Uy, Initial residual = 0.0057635, Final residual = 0.000553254, No Iterations 4
GAMG:  Solving for p, Initial residual = 0.0187729, Final residual = 0.00133298, No Iterations 2
time step continuity errors : sum local = 0.00429956, global = 1.81399e-05, cumulative = 0.0478889
smoothSolver:  Solving for omega, Initial residual = 0.00074758, Final residual = 5.70892e-05, No Iterations 3
smoothSolver:  Solving for k, Initial residual = 0.00677902, Final residual = 0.000444544, No Iterations 4
ExecutionTime = 0.97 s  ClockTime = 1 s

scalarTransport execute: age
smoothSolver:  Solving for age, Initial residual = 0.0119902, Final residual = 0.00119227, No Iterations 11

Time = 76

smoothSolver:  Solving for Ux, Initial residual = 0.00769525, Final residual = 0.000521646, No Iterations 5
smoothSolver:  Solving for Uy, Initial residual = 0.00560874, Final residual = 0.000548966, No Iterations 4
GAMG:  Solving for p, Initial residual = 0.0172824, Final residual = 0.00123952, No Iterations 2
time step continuity errors : sum local = 0.00398437, global = -0.000190731, cumulative = 0.0476982
smoothSolver:  Solving for omega, Initial residual = 0.000750529, Final residual = 5.64238e-05, No Iterations 3
smoothSolver:  Solving for k, Initial residual = 0.00665591, Final residual = 0.000442717, No Iterations 4
ExecutionTime = 0.99 s  ClockTime = 1 s

scalarTransport execute: age
smoothSolver:  Solving for age, Initial residual = 0.0115921, Final residual = 0.000997613, No Iterations 12

Time = 77

smoothSolver:  Solving for Ux, Initial residual = 0.0075728, Final residual = 0.00051388, No Iterations 5
smoothSolver:  Solving for Uy, Initial residual = 0.00545982, Final residual = 0.000532788, No Iterations 4
GAMG:  Solving for p, Initial residual = 0.0168586, Final residual = 0.00112458, No Iterations 2
time step continuity errors : sum local = 0.00359762, global = -0.000389995, cumulative = 0.0473082
smoothSolver:  Solving for omega, Initial residual = 0.000748442, Final residual = 5.50243e-05, No Iterations 3
smoothSolver:  Solving for k, Initial residual = 0.00651459, Final residual = 0.000446426, No Iterations 4
ExecutionTime = 1 s  ClockTime = 1 s

scalarTransport execute: age
smoothSolver:  Solving for age, Initial residual = 0.011252, Final residual = 0.00108489, No Iterations 11

Time = 78

smoothSolver:  Solving for Ux, Initial residual = 0.00739045, Final residual = 0.000492907, No Iterations 5
smoothSolver:  Solving for Uy, Initial residual = 0.00532231, Final residual = 0.000509972, No Iterations 4
GAMG:  Solving for p, Initial residual = 0.0166156, Final residual = 0.000966338, No Iterations 2
time step continuity errors : sum local = 0.00307926, global = -0.000491665, cumulative = 0.0468165
smoothSolver:  Solving for omega, Initial residual = 0.000751834, Final residual = 5.40793e-05, No Iterations 3
smoothSolver:  Solving for k, Initial residual = 0.00643122, Final residual = 0.000452842, No Iterations 4
ExecutionTime = 1.01 s  ClockTime = 1 s

scalarTransport execute: age
smoothSolver:  Solving for age, Initial residual = 0.0109347, Final residual = 0.00101591, No Iterations 11

Time = 79

smoothSolver:  Solving for Ux, Initial residual = 0.00714012, Final residual = 0.000461013, No Iterations 5
smoothSolver:  Solving for Uy, Initial residual = 0.00521678, Final residual = 0.000486305, No Iterations 4
GAMG:  Solving for p, Initial residual = 0.01612, Final residual = 0.000812533, No Iterations 2
time step continuity errors : sum local = 0.00259041, global = -0.000423433, cumulative = 0.0463931
smoothSolver:  Solving for omega, Initial residual = 0.000749856, Final residual = 5.43175e-05, No Iterations 3
smoothSolver:  Solving for k, Initial residual = 0.00644754, Final residual = 0.000463484, No Iterations 4
ExecutionTime = 1.02 s  ClockTime = 1 s

scalarTransport execute: age
smoothSolver:  Solving for age, Initial residual = 0.0108402, Final residual = 0.000991519, No Iterations 11

Time = 80

smoothSolver:  Solving for Ux, Initial residual = 0.00684485, Final residual = 0.000430313, No Iterations 5
smoothSolver:  Solving for Uy, Initial residual = 0.00521279, Final residual = 0.000484422, No Iterations 4
GAMG:  Solving for p, Initial residual = 0.0155805, Final residual = 0.00100415, No Iterations 2
time step continuity errors : sum local = 0.00321883, global = -0.000353356, cumulative = 0.0460397
smoothSolver:  Solving for omega, Initial residual = 0.000734196, Final residual = 5.5565e-05, No Iterations 3
smoothSolver:  Solving for k, Initial residual = 0.00655438, Final residual = 0.000475847, No Iterations 4
ExecutionTime = 1.03 s  ClockTime = 1 s

scalarTransport execute: age
smoothSolver:  Solving for age, Initial residual = 0.0106146, Final residual = 0.000975576, No Iterations 11

Time = 81

smoothSolver:  Solving for Ux, Initial residual = 0.00668515, Final residual = 0.000430933, No Iterations 5
smoothSolver:  Solving for Uy, Initial residual = 0.00509133, Final residual = 0.000498508, No Iterations 4
GAMG:  Solving for p, Initial residual = 0.0156459, Final residual = 0.00135485, No Iterations 2
time step continuity errors : sum local = 0.00434059, global = -0.000299952, cumulative = 0.0457398
smoothSolver:  Solving for omega, Initial residual = 0.000722437, Final residual = 5.65885e-05, No Iterations 3
smoothSolver:  Solving for k, Initial residual = 0.00671098, Final residual = 0.000487176, No Iterations 4
ExecutionTime = 1.05 s  ClockTime = 1 s

scalarTransport execute: age
smoothSolver:  Solving for age, Initial residual = 0.0104503, Final residual = 0.00097142, No Iterations 11

Time = 82

smoothSolver:  Solving for Ux, Initial residual = 0.006652, Final residual = 0.000441326, No Iterations 5
smoothSolver:  Solving for Uy, Initial residual = 0.0050335, Final residual = 0.0003111, No Iterations 5
GAMG:  Solving for p, Initial residual = 0.0155945, Final residual = 0.00143852, No Iterations 2
time step continuity errors : sum local = 0.00460576, global = -0.000249863, cumulative = 0.0454899
smoothSolver:  Solving for omega, Initial residual = 0.000726697, Final residual = 5.92328e-05, No Iterations 3
smoothSolver:  Solving for k, Initial residual = 0.00683863, Final residual = 0.00049475, No Iterations 4
ExecutionTime = 1.06 s  ClockTime = 1 s

scalarTransport execute: age
smoothSolver:  Solving for age, Initial residual = 0.0104753, Final residual = 0.000963302, No Iterations 11

Time = 83

smoothSolver:  Solving for Ux, Initial residual = 0.00669251, Final residual = 0.000454935, No Iterations 5
smoothSolver:  Solving for Uy, Initial residual = 0.00502725, Final residual = 0.000312273, No Iterations 5
GAMG:  Solving for p, Initial residual = 0.0152758, Final residual = 0.00132092, No Iterations 2
time step continuity errors : sum local = 0.00422989, global = -0.000170046, cumulative = 0.0453199
smoothSolver:  Solving for omega, Initial residual = 0.000748111, Final residual = 6.08209e-05, No Iterations 3
smoothSolver:  Solving for k, Initial residual = 0.00683899, Final residual = 0.000494376, No Iterations 4
ExecutionTime = 1.07 s  ClockTime = 1 s

scalarTransport execute: age
smoothSolver:  Solving for age, Initial residual = 0.0104386, Final residual = 0.000939238, No Iterations 11

Time = 84

smoothSolver:  Solving for Ux, Initial residual = 0.006665, Final residual = 0.000456364, No Iterations 5
smoothSolver:  Solving for Uy, Initial residual = 0.0050184, Final residual = 0.00031028, No Iterations 5
GAMG:  Solving for p, Initial residual = 0.0148746, Final residual = 0.00120662, No Iterations 2
time step continuity errors : sum local = 0.00386974, global = -5.2928e-05, cumulative = 0.045267
smoothSolver:  Solving for omega, Initial residual = 0.000754897, Final residual = 6.1493e-05, No Iterations 3
smoothSolver:  Solving for k, Initial residual = 0.00678568, Final residual = 0.000490743, No Iterations 4
ExecutionTime = 1.08 s  ClockTime = 1 s

scalarTransport execute: age
smoothSolver:  Solving for age, Initial residual = 0.0103315, Final residual = 0.000924251, No Iterations 11

Time = 85

smoothSolver:  Solving for Ux, Initial residual = 0.00657296, Final residual = 0.000447143, No Iterations 5
smoothSolver:  Solving for Uy, Initial residual = 0.00500218, Final residual = 0.000305387, No Iterations 5
GAMG:  Solving for p, Initial residual = 0.0146307, Final residual = 0.00115457, No Iterations 2
time step continuity errors : sum local = 0.00370656, global = 8.67182e-05, cumulative = 0.0453537
smoothSolver:  Solving for omega, Initial residual = 0.000738788, Final residual = 6.15077e-05, No Iterations 3
smoothSolver:  Solving for k, Initial residual = 0.00669182, Final residual = 0.000486084, No Iterations 4
ExecutionTime = 1.1 s  ClockTime = 1 s

scalarTransport execute: age
smoothSolver:  Solving for age, Initial residual = 0.0100707, Final residual = 0.000924888, No Iterations 11

Time = 86

smoothSolver:  Solving for Ux, Initial residual = 0.00648423, Final residual = 0.000436078, No Iterations 5
smoothSolver:  Solving for Uy, Initial residual = 0.00492256, Final residual = 0.000296242, No Iterations 5
GAMG:  Solving for p, Initial residual = 0.0145977, Final residual = 0.000953662, No Iterations 2
time step continuity errors : sum local = 0.00306204, global = 0.00020442, cumulative = 0.0455581
smoothSolver:  Solving for omega, Initial residual = 0.000716406, Final residual = 6.07058e-05, No Iterations 3
smoothSolver:  Solving for k, Initial residual = 0.0065109, Final residual = 0.000478902, No Iterations 4
ExecutionTime = 1.11 s  ClockTime = 2 s

scalarTransport execute: age
smoothSolver:  Solving for age, Initial residual = 0.00969551, Final residual = 0.000925592, No Iterations 11

Time = 87

smoothSolver:  Solving for Ux, Initial residual = 0.00639054, Final residual = 0.000421494, No Iterations 5
smoothSolver:  Solving for Uy, Initial residual = 0.00471559, Final residual = 0.000461526, No Iterations 4
GAMG:  Solving for p, Initial residual = 0.0145917, Final residual = 0.000768348, No Iterations 2
time step continuity errors : sum local = 0.00245982, global = 0.00024367, cumulative = 0.0458018
smoothSolver:  Solving for omega, Initial residual = 0.000658315, Final residual = 5.82391e-05, No Iterations 3
smoothSolver:  Solving for k, Initial residual = 0.00622827, Final residual = 0.000464058, No Iterations 4
ExecutionTime = 1.12 s  ClockTime = 2 s

scalarTransport execute: age
smoothSolver:  Solving for age, Initial residual = 0.00916136, Final residual = 0.000914074, No Iterations 11

Time = 88

smoothSolver:  Solving for Ux, Initial residual = 0.00620795, Final residual = 0.000398093, No Iterations 5
smoothSolver:  Solving for Uy, Initial residual = 0.00451687, Final residual = 0.000432322, No Iterations 4
GAMG:  Solving for p, Initial residual = 0.0145032, Final residual = 0.00080267, No Iterations 2
time step continuity errors : sum local = 0.00255379, global = 0.000231476, cumulative = 0.0460332
smoothSolver:  Solving for omega, Initial residual = 0.000598846, Final residual = 5.5872e-05, No Iterations 3
smoothSolver:  Solving for k, Initial residual = 0.00594814, Final residual = 0.000445599, No Iterations 4
ExecutionTime = 1.13 s  ClockTime = 2 s

scalarTransport execute: age
smoothSolver:  Solving for age, Initial residual = 0.00864149, Final residual = 0.000785319, No Iterations 12

Time = 89

smoothSolver:  Solving for Ux, Initial residual = 0.00592099, Final residual = 0.000373187, No Iterations 5
smoothSolver:  Solving for Uy, Initial residual = 0.00427393, Final residual = 0.000408119, No Iterations 4
GAMG:  Solving for p, Initial residual = 0.0141851, Final residual = 0.000955949, No Iterations 2
time step continuity errors : sum local = 0.00302598, global = 0.000197377, cumulative = 0.0462306
smoothSolver:  Solving for omega, Initial residual = 0.000552034, Final residual = 5.28639e-05, No Iterations 3
smoothSolver:  Solving for k, Initial residual = 0.00567872, Final residual = 0.000423691, No Iterations 4
ExecutionTime = 1.15 s  ClockTime = 2 s

scalarTransport execute: age
smoothSolver:  Solving for age, Initial residual = 0.00817373, Final residual = 0.000771823, No Iterations 12

Time = 90

smoothSolver:  Solving for Ux, Initial residual = 0.00559196, Final residual = 0.000345896, No Iterations 5
smoothSolver:  Solving for Uy, Initial residual = 0.00401766, Final residual = 0.000382095, No Iterations 4
GAMG:  Solving for p, Initial residual = 0.0135934, Final residual = 0.00100272, No Iterations 2
time step continuity errors : sum local = 0.00316078, global = 0.000133259, cumulative = 0.0463639
smoothSolver:  Solving for omega, Initial residual = 0.000517669, Final residual = 5.04082e-05, No Iterations 3
smoothSolver:  Solving for k, Initial residual = 0.00539086, Final residual = 0.000395857, No Iterations 4
ExecutionTime = 1.16 s  ClockTime = 2 s

scalarTransport execute: age
smoothSolver:  Solving for age, Initial residual = 0.00783363, Final residual = 0.000749864, No Iterations 12

Time = 91

smoothSolver:  Solving for Ux, Initial residual = 0.0052742, Final residual = 0.000319066, No Iterations 5
smoothSolver:  Solving for Uy, Initial residual = 0.00373777, Final residual = 0.000351683, No Iterations 4
GAMG:  Solving for p, Initial residual = 0.0126727, Final residual = 0.000967827, No Iterations 2
time step continuity errors : sum local = 0.00303815, global = 4.37854e-05, cumulative = 0.0464077
smoothSolver:  Solving for omega, Initial residual = 0.000503558, Final residual = 4.7554e-05, No Iterations 3
smoothSolver:  Solving for k, Initial residual = 0.0050719, Final residual = 0.000364262, No Iterations 4
ExecutionTime = 1.17 s  ClockTime = 2 s

scalarTransport execute: age
smoothSolver:  Solving for age, Initial residual = 0.00754569, Final residual = 0.000721063, No Iterations 12

Time = 92

smoothSolver:  Solving for Ux, Initial residual = 0.0049324, Final residual = 0.000296587, No Iterations 5
smoothSolver:  Solving for Uy, Initial residual = 0.00345926, Final residual = 0.000319227, No Iterations 4
GAMG:  Solving for p, Initial residual = 0.011761, Final residual = 0.000879343, No Iterations 2
time step continuity errors : sum local = 0.00275036, global = -7.52507e-05, cumulative = 0.0463324
smoothSolver:  Solving for omega, Initial residual = 0.000487486, Final residual = 4.38066e-05, No Iterations 3
smoothSolver:  Solving for k, Initial residual = 0.0047187, Final residual = 0.000331284, No Iterations 4
ExecutionTime = 1.18 s  ClockTime = 2 s

scalarTransport execute: age
smoothSolver:  Solving for age, Initial residual = 0.00732847, Final residual = 0.000684843, No Iterations 12

Time = 93

smoothSolver:  Solving for Ux, Initial residual = 0.00459489, Final residual = 0.000274441, No Iterations 5
smoothSolver:  Solving for Uy, Initial residual = 0.00320879, Final residual = 0.000286759, No Iterations 4
GAMG:  Solving for p, Initial residual = 0.0109342, Final residual = 0.00079637, No Iterations 2
time step continuity errors : sum local = 0.00248093, global = -0.000215645, cumulative = 0.0461168
smoothSolver:  Solving for omega, Initial residual = 0.000461267, Final residual = 3.97155e-05, No Iterations 3
smoothSolver:  Solving for k, Initial residual = 0.00434039, Final residual = 0.000299258, No Iterations 4
ExecutionTime = 1.19 s  ClockTime = 2 s

scalarTransport execute: age
smoothSolver:  Solving for age, Initial residual = 0.00701108, Final residual = 0.000635018, No Iterations 12

Time = 94

smoothSolver:  Solving for Ux, Initial residual = 0.00372135, Final residual = 0.000364922, No Iterations 4
smoothSolver:  Solving for Uy, Initial residual = 0.00313626, Final residual = 0.000256467, No Iterations 4
GAMG:  Solving for p, Initial residual = 0.010209, Final residual = 0.000496221, No Iterations 2
time step continuity errors : sum local = 0.00153933, global = -0.000330943, cumulative = 0.0457858
smoothSolver:  Solving for omega, Initial residual = 0.000421204, Final residual = 3.48493e-05, No Iterations 3
smoothSolver:  Solving for k, Initial residual = 0.00391438, Final residual = 0.000269985, No Iterations 4
ExecutionTime = 1.21 s  ClockTime = 2 s

scalarTransport execute: age
smoothSolver:  Solving for age, Initial residual = 0.00663787, Final residual = 0.000570999, No Iterations 12

Time = 95

smoothSolver:  Solving for Ux, Initial residual = 0.00388743, Final residual = 0.000379885, No Iterations 4
smoothSolver:  Solving for Uy, Initial residual = 0.00276691, Final residual = 0.000225614, No Iterations 4
GAMG:  Solving for p, Initial residual = 0.0094242, Final residual = 0.000535306, No Iterations 2
time step continuity errors : sum local = 0.00165578, global = -0.000300536, cumulative = 0.0454853
smoothSolver:  Solving for omega, Initial residual = 0.000379731, Final residual = 3.1488e-05, No Iterations 3
smoothSolver:  Solving for k, Initial residual = 0.00345694, Final residual = 0.000245471, No Iterations 4
ExecutionTime = 1.22 s  ClockTime = 2 s

scalarTransport execute: age
smoothSolver:  Solving for age, Initial residual = 0.00625105, Final residual = 0.00059832, No Iterations 11

Time = 96

smoothSolver:  Solving for Ux, Initial residual = 0.00353652, Final residual = 0.000327294, No Iterations 4
smoothSolver:  Solving for Uy, Initial residual = 0.00257371, Final residual = 0.000191803, No Iterations 4
[...]

Time = 376

smoothSolver:  Solving for Ux, Initial residual = 4.20453e-07, Final residual = 2.58257e-08, No Iterations 5
smoothSolver:  Solving for Uy, Initial residual = 3.7155e-07, Final residual = 3.7051e-08, No Iterations 4
GAMG:  Solving for p, Initial residual = 1.69233e-06, Final residual = 1.23187e-07, No Iterations 2
time step continuity errors : sum local = 3.76434e-07, global = -1.13196e-09, cumulative = 0.0444723
smoothSolver:  Solving for omega, Initial residual = 2.83791e-07, Final residual = 2.73334e-08, No Iterations 1
smoothSolver:  Solving for k, Initial residual = 3.66288e-07, Final residual = 3.49645e-08, No Iterations 4
ExecutionTime = 4.68 s  ClockTime = 5 s

scalarTransport execute: age
smoothSolver:  Solving for age, Initial residual = 0.0003465, Final residual = 3.0611e-05, No Iterations 14

Time = 377

smoothSolver:  Solving for Ux, Initial residual = 4.06984e-07, Final residual = 2.51788e-08, No Iterations 5
smoothSolver:  Solving for Uy, Initial residual = 3.50299e-07, Final residual = 2.19855e-08, No Iterations 5
GAMG:  Solving for p, Initial residual = 1.58522e-06, Final residual = 1.24157e-07, No Iterations 2
time step continuity errors : sum local = 3.79396e-07, global = -2.11732e-09, cumulative = 0.0444723
smoothSolver:  Solving for omega, Initial residual = 1.95351e-07, Final residual = 1.03092e-08, No Iterations 2
smoothSolver:  Solving for k, Initial residual = 3.63664e-07, Final residual = 3.4431e-08, No Iterations 4
ExecutionTime = 4.69 s  ClockTime = 5 s

scalarTransport execute: age
smoothSolver:  Solving for age, Initial residual = 0.000344842, Final residual = 3.04893e-05, No Iterations 14

Time = 378

smoothSolver:  Solving for Ux, Initial residual = 3.93362e-07, Final residual = 2.50321e-08, No Iterations 5
smoothSolver:  Solving for Uy, Initial residual = 3.38662e-07, Final residual = 2.12293e-08, No Iterations 5
GAMG:  Solving for p, Initial residual = 1.46903e-06, Final residual = 1.07955e-07, No Iterations 2
time step continuity errors : sum local = 3.29887e-07, global = -2.97998e-09, cumulative = 0.0444723
smoothSolver:  Solving for omega, Initial residual = 1.45453e-07, Final residual = 9.4784e-09, No Iterations 2
smoothSolver:  Solving for k, Initial residual = 3.60287e-07, Final residual = 3.37059e-08, No Iterations 4
ExecutionTime = 4.7 s  ClockTime = 5 s

scalarTransport execute: age
smoothSolver:  Solving for age, Initial residual = 0.000343396, Final residual = 3.0369e-05, No Iterations 14

Time = 379

smoothSolver:  Solving for Ux, Initial residual = 3.83607e-07, Final residual = 2.47718e-08, No Iterations 5
smoothSolver:  Solving for Uy, Initial residual = 3.29008e-07, Final residual = 2.06624e-08, No Iterations 5
GAMG:  Solving for p, Initial residual = 1.2789e-06, Final residual = 1.01732e-07, No Iterations 2
time step continuity errors : sum local = 3.10873e-07, global = -3.36939e-09, cumulative = 0.0444723
smoothSolver:  Solving for omega, Initial residual = 1.03512e-07, Final residual = 8.78987e-09, No Iterations 2
smoothSolver:  Solving for k, Initial residual = 3.56727e-07, Final residual = 3.3075e-08, No Iterations 4
ExecutionTime = 4.72 s  ClockTime = 5 s

scalarTransport execute: age
smoothSolver:  Solving for age, Initial residual = 0.00034185, Final residual = 3.02507e-05, No Iterations 14

Time = 380

smoothSolver:  Solving for Ux, Initial residual = 7.72575e-07, Final residual = 6.69442e-08, No Iterations 3
smoothSolver:  Solving for Uy, Initial residual = 3.28287e-07, Final residual = 1.99613e-08, No Iterations 5
GAMG:  Solving for p, Initial residual = 2.16605e-06, Final residual = 1.56562e-07, No Iterations 2
time step continuity errors : sum local = 4.78421e-07, global = -3.29686e-09, cumulative = 0.0444723
smoothSolver:  Solving for omega, Initial residual = 1.53882e-07, Final residual = 8.4013e-09, No Iterations 2
smoothSolver:  Solving for k, Initial residual = 3.53972e-07, Final residual = 3.2422e-08, No Iterations 4
ExecutionTime = 4.73 s  ClockTime = 5 s

scalarTransport execute: age
smoothSolver:  Solving for age, Initial residual = 0.00034104, Final residual = 3.01355e-05, No Iterations 14

Time = 381

smoothSolver:  Solving for Ux, Initial residual = 4.51523e-07, Final residual = 4.19855e-08, No Iterations 4
smoothSolver:  Solving for Uy, Initial residual = 3.36438e-07, Final residual = 3.18044e-08, No Iterations 4
GAMG:  Solving for p, Initial residual = 2.29979e-06, Final residual = 1.7195e-07, No Iterations 2
time step continuity errors : sum local = 5.25444e-07, global = -3.06497e-09, cumulative = 0.0444723
smoothSolver:  Solving for omega, Initial residual = 2.0632e-07, Final residual = 1.95462e-08, No Iterations 1
smoothSolver:  Solving for k, Initial residual = 3.48506e-07, Final residual = 3.17707e-08, No Iterations 4
ExecutionTime = 4.74 s  ClockTime = 5 s

scalarTransport execute: age
smoothSolver:  Solving for age, Initial residual = 0.000340006, Final residual = 3.00217e-05, No Iterations 14

Time = 382

smoothSolver:  Solving for Ux, Initial residual = 3.92794e-07, Final residual = 2.43121e-08, No Iterations 5
smoothSolver:  Solving for Uy, Initial residual = 3.23092e-07, Final residual = 3.04295e-08, No Iterations 4
GAMG:  Solving for p, Initial residual = 1.49354e-06, Final residual = 1.24247e-07, No Iterations 2
time step continuity errors : sum local = 3.79672e-07, global = -2.46046e-09, cumulative = 0.0444723
smoothSolver:  Solving for omega, Initial residual = 1.69512e-07, Final residual = 8.195e-09, No Iterations 2
smoothSolver:  Solving for k, Initial residual = 3.36629e-07, Final residual = 3.07405e-08, No Iterations 4
ExecutionTime = 4.75 s  ClockTime = 5 s

scalarTransport execute: age
smoothSolver:  Solving for age, Initial residual = 0.000338057, Final residual = 2.99064e-05, No Iterations 14

Time = 383

smoothSolver:  Solving for Ux, Initial residual = 3.65763e-07, Final residual = 2.29344e-08, No Iterations 5
smoothSolver:  Solving for Uy, Initial residual = 3.0535e-07, Final residual = 2.90885e-08, No Iterations 4
GAMG:  Solving for p, Initial residual = 1.53398e-06, Final residual = 1.09663e-07, No Iterations 2
time step continuity errors : sum local = 3.35107e-07, global = -1.4139e-09, cumulative = 0.0444723
smoothSolver:  Solving for omega, Initial residual = 1.9996e-07, Final residual = 1.64376e-08, No Iterations 1
smoothSolver:  Solving for k, Initial residual = 3.27741e-07, Final residual = 2.98909e-08, No Iterations 4
ExecutionTime = 4.76 s  ClockTime = 5 s

scalarTransport execute: age
smoothSolver:  Solving for age, Initial residual = 0.000336716, Final residual = 2.97906e-05, No Iterations 14

Time = 384

smoothSolver:  Solving for Ux, Initial residual = 3.56366e-07, Final residual = 2.21396e-08, No Iterations 5
smoothSolver:  Solving for Uy, Initial residual = 2.87447e-07, Final residual = 2.8312e-08, No Iterations 4
GAMG:  Solving for p, Initial residual = 1.24384e-06, Final residual = 9.49571e-08, No Iterations 2
time step continuity errors : sum local = 2.9017e-07, global = -3.52202e-10, cumulative = 0.0444723
smoothSolver:  Solving for omega, Initial residual = 1.9759e-07, Final residual = 1.82502e-08, No Iterations 1
smoothSolver:  Solving for k, Initial residual = 3.1719e-07, Final residual = 2.90113e-08, No Iterations 4
ExecutionTime = 4.78 s  ClockTime = 5 s

scalarTransport execute: age
smoothSolver:  Solving for age, Initial residual = 0.000335393, Final residual = 2.96749e-05, No Iterations 14

Time = 385

smoothSolver:  Solving for Ux, Initial residual = 3.40937e-07, Final residual = 2.14616e-08, No Iterations 5
smoothSolver:  Solving for Uy, Initial residual = 2.7929e-07, Final residual = 2.77343e-08, No Iterations 4
GAMG:  Solving for p, Initial residual = 1.10454e-06, Final residual = 8.64515e-08, No Iterations 2
time step continuity errors : sum local = 2.64178e-07, global = 7.04514e-10, cumulative = 0.0444723
smoothSolver:  Solving for omega, Initial residual = 1.35572e-07, Final residual = 8.35123e-09, No Iterations 2
smoothSolver:  Solving for k, Initial residual = 3.03007e-07, Final residual = 2.79034e-08, No Iterations 4
ExecutionTime = 4.79 s  ClockTime = 5 s

scalarTransport execute: age
smoothSolver:  Solving for age, Initial residual = 0.000334, Final residual = 2.95598e-05, No Iterations 14

Time = 386

smoothSolver:  Solving for Ux, Initial residual = 3.29102e-07, Final residual = 2.09883e-08, No Iterations 5
smoothSolver:  Solving for Uy, Initial residual = 2.70314e-07, Final residual = 1.63087e-08, No Iterations 5
GAMG:  Solving for p, Initial residual = 1.08924e-06, Final residual = 8.14288e-08, No Iterations 2
time step continuity errors : sum local = 2.4883e-07, global = 1.63196e-09, cumulative = 0.0444723
smoothSolver:  Solving for omega, Initial residual = 1.07156e-07, Final residual = 7.56001e-09, No Iterations 2
smoothSolver:  Solving for k, Initial residual = 2.91487e-07, Final residual = 2.69889e-08, No Iterations 4
ExecutionTime = 4.8 s  ClockTime = 5 s

scalarTransport execute: age
smoothSolver:  Solving for age, Initial residual = 0.000332636, Final residual = 2.94455e-05, No Iterations 14

Time = 387

smoothSolver:  Solving for Ux, Initial residual = 3.6395e-07, Final residual = 3.42292e-08, No Iterations 4
smoothSolver:  Solving for Uy, Initial residual = 2.73129e-07, Final residual = 2.66734e-08, No Iterations 4
GAMG:  Solving for p, Initial residual = 1.60649e-06, Final residual = 1.2078e-07, No Iterations 2
time step continuity errors : sum local = 3.69078e-07, global = 2.55756e-09, cumulative = 0.0444723
smoothSolver:  Solving for omega, Initial residual = 1.2457e-07, Final residual = 7.83389e-09, No Iterations 2
smoothSolver:  Solving for k, Initial residual = 2.81236e-07, Final residual = 2.6107e-08, No Iterations 4
ExecutionTime = 4.81 s  ClockTime = 5 s

scalarTransport execute: age
smoothSolver:  Solving for age, Initial residual = 0.000331383, Final residual = 2.93334e-05, No Iterations 14

Time = 388

smoothSolver:  Solving for Ux, Initial residual = 3.47794e-07, Final residual = 3.41116e-08, No Iterations 4
smoothSolver:  Solving for Uy, Initial residual = 2.78752e-07, Final residual = 2.6094e-08, No Iterations 4
GAMG:  Solving for p, Initial residual = 1.56775e-06, Final residual = 1.14629e-07, No Iterations 2
time step continuity errors : sum local = 3.50282e-07, global = 2.91292e-09, cumulative = 0.0444723
smoothSolver:  Solving for omega, Initial residual = 1.50976e-07, Final residual = 7.41573e-09, No Iterations 2
smoothSolver:  Solving for k, Initial residual = 2.69936e-07, Final residual = 2.52546e-08, No Iterations 4
ExecutionTime = 4.82 s  ClockTime = 5 s

scalarTransport execute: age
smoothSolver:  Solving for age, Initial residual = 0.000330313, Final residual = 2.92216e-05, No Iterations 14

Time = 389

smoothSolver:  Solving for Ux, Initial residual = 3.69472e-07, Final residual = 3.29962e-08, No Iterations 4
smoothSolver:  Solving for Uy, Initial residual = 2.6203e-07, Final residual = 2.56803e-08, No Iterations 4
GAMG:  Solving for p, Initial residual = 1.63109e-06, Final residual = 1.28997e-07, No Iterations 2
time step continuity errors : sum local = 3.94189e-07, global = 2.79749e-09, cumulative = 0.0444723
smoothSolver:  Solving for omega, Initial residual = 1.66129e-07, Final residual = 6.88405e-09, No Iterations 2
smoothSolver:  Solving for k, Initial residual = 2.6143e-07, Final residual = 2.46415e-08, No Iterations 4
ExecutionTime = 4.83 s  ClockTime = 5 s

scalarTransport execute: age
smoothSolver:  Solving for age, Initial residual = 0.000328749, Final residual = 2.91099e-05, No Iterations 14

Time = 390

smoothSolver:  Solving for Ux, Initial residual = 3.40318e-07, Final residual = 3.2304e-08, No Iterations 4
smoothSolver:  Solving for Uy, Initial residual = 2.62628e-07, Final residual = 2.48913e-08, No Iterations 4
GAMG:  Solving for p, Initial residual = 1.61244e-06, Final residual = 1.21195e-07, No Iterations 2
time step continuity errors : sum local = 3.70348e-07, global = 2.49613e-09, cumulative = 0.0444723
smoothSolver:  Solving for omega, Initial residual = 1.74966e-07, Final residual = 1.65541e-08, No Iterations 1
smoothSolver:  Solving for k, Initial residual = 2.55287e-07, Final residual = 2.41922e-08, No Iterations 4
ExecutionTime = 4.85 s  ClockTime = 5 s

scalarTransport execute: age
smoothSolver:  Solving for age, Initial residual = 0.000327573, Final residual = 2.89985e-05, No Iterations 14

Time = 391

smoothSolver:  Solving for Ux, Initial residual = 3.44747e-07, Final residual = 3.11227e-08, No Iterations 4
smoothSolver:  Solving for Uy, Initial residual = 2.55584e-07, Final residual = 2.46083e-08, No Iterations 4
GAMG:  Solving for p, Initial residual = 1.48021e-06, Final residual = 1.24199e-07, No Iterations 2
time step continuity errors : sum local = 3.79528e-07, global = 2.11609e-09, cumulative = 0.0444723
smoothSolver:  Solving for omega, Initial residual = 1.72032e-07, Final residual = 1.6345e-08, No Iterations 1
smoothSolver:  Solving for k, Initial residual = 2.49769e-07, Final residual = 2.38561e-08, No Iterations 4
ExecutionTime = 4.86 s  ClockTime = 5 s

scalarTransport execute: age
smoothSolver:  Solving for age, Initial residual = 0.000326208, Final residual = 2.88882e-05, No Iterations 14

Time = 392

smoothSolver:  Solving for Ux, Initial residual = 3.18427e-07, Final residual = 3.04129e-08, No Iterations 4
smoothSolver:  Solving for Uy, Initial residual = 2.49907e-07, Final residual = 2.39081e-08, No Iterations 4
GAMG:  Solving for p, Initial residual = 1.55534e-06, Final residual = 1.15055e-07, No Iterations 2
time step continuity errors : sum local = 3.51584e-07, global = 1.48644e-09, cumulative = 0.0444723
smoothSolver:  Solving for omega, Initial residual = 1.71528e-07, Final residual = 1.66081e-08, No Iterations 1
smoothSolver:  Solving for k, Initial residual = 2.44529e-07, Final residual = 2.34844e-08, No Iterations 4
ExecutionTime = 4.87 s  ClockTime = 5 s

scalarTransport execute: age
smoothSolver:  Solving for age, Initial residual = 0.000324928, Final residual = 2.87789e-05, No Iterations 14

Time = 393

smoothSolver:  Solving for Ux, Initial residual = 2.81877e-07, Final residual = 1.78074e-08, No Iterations 5
smoothSolver:  Solving for Uy, Initial residual = 2.43516e-07, Final residual = 2.37588e-08, No Iterations 4
GAMG:  Solving for p, Initial residual = 1.07122e-06, Final residual = 8.20903e-08, No Iterations 2
time step continuity errors : sum local = 2.50852e-07, global = 4.81819e-10, cumulative = 0.0444723
smoothSolver:  Solving for omega, Initial residual = 1.10864e-07, Final residual = 6.40326e-09, No Iterations 2
smoothSolver:  Solving for k, Initial residual = 2.37418e-07, Final residual = 2.3014e-08, No Iterations 4
ExecutionTime = 4.88 s  ClockTime = 5 s

scalarTransport execute: age
smoothSolver:  Solving for age, Initial residual = 0.000323468, Final residual = 2.867e-05, No Iterations 14

Time = 394

smoothSolver:  Solving for Ux, Initial residual = 2.71602e-07, Final residual = 1.69878e-08, No Iterations 5
smoothSolver:  Solving for Uy, Initial residual = 2.26121e-07, Final residual = 1.41482e-08, No Iterations 5
GAMG:  Solving for p, Initial residual = 1.05708e-06, Final residual = 7.63249e-08, No Iterations 2
time step continuity errors : sum local = 2.33234e-07, global = -2.1558e-10, cumulative = 0.0444723
smoothSolver:  Solving for omega, Initial residual = 7.05855e-08, Final residual = 5.76018e-09, No Iterations 2
smoothSolver:  Solving for k, Initial residual = 2.35293e-07, Final residual = 2.28583e-08, No Iterations 4
ExecutionTime = 4.89 s  ClockTime = 5 s

scalarTransport execute: age
smoothSolver:  Solving for age, Initial residual = 0.000322148, Final residual = 2.85622e-05, No Iterations 14

Time = 395

smoothSolver:  Solving for Ux, Initial residual = 2.64575e-07, Final residual = 1.6779e-08, No Iterations 5
smoothSolver:  Solving for Uy, Initial residual = 2.46812e-07, Final residual = 2.31484e-08, No Iterations 4
GAMG:  Solving for p, Initial residual = 1.27692e-06, Final residual = 9.20305e-08, No Iterations 2
time step continuity errors : sum local = 2.81226e-07, global = -9.38017e-10, cumulative = 0.0444723
smoothSolver:  Solving for omega, Initial residual = 1.37579e-07, Final residual = 6.26189e-09, No Iterations 2
smoothSolver:  Solving for k, Initial residual = 2.35118e-07, Final residual = 2.26441e-08, No Iterations 4
ExecutionTime = 4.91 s  ClockTime = 5 s

scalarTransport execute: age
smoothSolver:  Solving for age, Initial residual = 0.000321058, Final residual = 2.84565e-05, No Iterations 14

Time = 396

smoothSolver:  Solving for Ux, Initial residual = 2.72831e-07, Final residual = 2.69419e-08, No Iterations 4
smoothSolver:  Solving for Uy, Initial residual = 2.38804e-07, Final residual = 2.28685e-08, No Iterations 4
GAMG:  Solving for p, Initial residual = 1.1088e-06, Final residual = 7.63603e-08, No Iterations 2
time step continuity errors : sum local = 2.33342e-07, global = -1.99547e-09, cumulative = 0.0444723
smoothSolver:  Solving for omega, Initial residual = 2.08512e-07, Final residual = 1.67177e-08, No Iterations 1
smoothSolver:  Solving for k, Initial residual = 2.34167e-07, Final residual = 2.23176e-08, No Iterations 4
ExecutionTime = 4.92 s  ClockTime = 5 s

scalarTransport execute: age
smoothSolver:  Solving for age, Initial residual = 0.000320066, Final residual = 2.83505e-05, No Iterations 14

Time = 397

smoothSolver:  Solving for Ux, Initial residual = 2.82517e-07, Final residual = 2.65249e-08, No Iterations 4
smoothSolver:  Solving for Uy, Initial residual = 3.0955e-07, Final residual = 2.25755e-08, No Iterations 4
GAMG:  Solving for p, Initial residual = 1.512e-06, Final residual = 9.27702e-08, No Iterations 2
time step continuity errors : sum local = 2.83486e-07, global = -2.55067e-09, cumulative = 0.0444723
smoothSolver:  Solving for omega, Initial residual = 3.33484e-07, Final residual = 2.1396e-08, No Iterations 1
smoothSolver:  Solving for k, Initial residual = 2.34576e-07, Final residual = 2.20505e-08, No Iterations 4
ExecutionTime = 4.93 s  ClockTime = 5 s

scalarTransport execute: age
smoothSolver:  Solving for age, Initial residual = 0.000319223, Final residual = 2.82451e-05, No Iterations 14

Time = 398

smoothSolver:  Solving for Ux, Initial residual = 2.83027e-07, Final residual = 2.67005e-08, No Iterations 4
smoothSolver:  Solving for Uy, Initial residual = 2.4946e-07, Final residual = 2.19641e-08, No Iterations 4
GAMG:  Solving for p, Initial residual = 1.39109e-06, Final residual = 8.7586e-08, No Iterations 2
time step continuity errors : sum local = 2.67646e-07, global = -3.065e-09, cumulative = 0.0444723
smoothSolver:  Solving for omega, Initial residual = 3.89428e-07, Final residual = 2.26679e-08, No Iterations 1
smoothSolver:  Solving for k, Initial residual = 2.31978e-07, Final residual = 2.15628e-08, No Iterations 4
ExecutionTime = 4.94 s  ClockTime = 5 s

scalarTransport execute: age
smoothSolver:  Solving for age, Initial residual = 0.000318104, Final residual = 2.81403e-05, No Iterations 14

Time = 399

smoothSolver:  Solving for Ux, Initial residual = 2.649e-07, Final residual = 2.60262e-08, No Iterations 4
smoothSolver:  Solving for Uy, Initial residual = 2.12601e-07, Final residual = 1.2862e-08, No Iterations 5
GAMG:  Solving for p, Initial residual = 9.6229e-07, Final residual = 7.40262e-08, No Iterations 2
time step continuity errors : sum local = 2.26209e-07, global = -3.37941e-09, cumulative = 0.0444723
smoothSolver:  Solving for omega, Initial residual = 1.79149e-07, Final residual = 1.61056e-08, No Iterations 1
smoothSolver:  Solving for k, Initial residual = 2.28457e-07, Final residual = 2.1074e-08, No Iterations 4
ExecutionTime = 4.95 s  ClockTime = 5 s


SIMPLE solution converged in 399 iterations

scalarTransport execute: age
smoothSolver:  Solving for age, Initial residual = 0.000316571, Final residual = 2.80342e-05, No Iterations 14

End

