/*---------------------------------------------------------------------------*\
| =========                 |                                                 |
| \\      /  F ield         | OpenFOAM: The Open Source CFD Toolbox           |
|  \\    /   O peration     | Version:  v2012                                 |
|   \\  /    A nd           | Website:  www.openfoam.com                      |
|    \\/     M anipulation  |                                                 |
\*---------------------------------------------------------------------------*/
Build  : _7bdb509494-20201222 OPENFOAM=2012
Arch   : "LSB;label=32;scalar=64"
Exec   : simpleFoam
Date   : Feb 23 2023
Time   : 20:03:22
Host   : johnsDesktop
PID    : 12728
I/O    : uncollated
Case   : /home/john/of_runs/cases/dbl_0_35_7-00300_9
nProcs : 1
trapFpe: Floating point exception trapping enabled (FOAM_SIGFPE).
fileModificationChecking : Monitoring run-time modified files using timeStampMaster (fileModificationSkew 5, maxFileModificationPolls 20)
allowSystemOperations : Allowing user-supplied system call operations

// * * * * * * * * * * * * * * * * * * * * * * * * * * * * * * * * * * * * * //
Create time

Create mesh for time = 0


SIMPLE: convergence criteria
    field p	 tolerance 1e-06
    field U	 tolerance 1e-06
    field "(k|epsilon|omega|f|v2|age)"	 tolerance 1e-05

Reading field p

Reading field U

Reading/calculating face flux field phi

Selecting incompressible transport model Newtonian
Selecting turbulence model type RAS
Selecting RAS turbulence model kOmegaSST
Selecting patchDistMethod meshWave
RAS
{
    RASModel        kOmegaSST;
    turbulence      on;
    printCoeffs     on;
    alphaK1         0.85;
    alphaK2         1;
    alphaOmega1     0.5;
    alphaOmega2     0.856;
    gamma1          0.555556;
    gamma2          0.44;
    beta1           0.075;
    beta2           0.0828;
    betaStar        0.09;
    a1              0.31;
    b1              1;
    c1              10;
    F3              false;
    decayControl    false;
    kInf            0;
    omegaInf        0;
}

No MRF models present

No finite volume options present

Starting time loop

Selecting finite volume options type scalarSemiImplicitSource
    Source: unitySource
    - selecting all cells
    - selected 6556 cell(s) with volume 0.03165
Time = 1

smoothSolver:  Solving for Ux, Initial residual = 0, Final residual = 0, No Iterations 0
smoothSolver:  Solving for Uy, Initial residual = 1, Final residual = 0.0703451, No Iterations 2
GAMG:  Solving for p, Initial residual = 1, Final residual = 0.0589653, No Iterations 6
time step continuity errors : sum local = 0.00372609, global = -0.00103458, cumulative = -0.00103458
smoothSolver:  Solving for omega, Initial residual = 0.266281, Final residual = 0.0126114, No Iterations 3
smoothSolver:  Solving for k, Initial residual = 1, Final residual = 0.0804228, No Iterations 3
ExecutionTime = 0.05 s  ClockTime = 0 s

scalarTransport execute: age
smoothSolver:  Solving for age, Initial residual = 1, Final residual = 0.0837145, No Iterations 6

Time = 2

smoothSolver:  Solving for Ux, Initial residual = 0.585281, Final residual = 0.0498875, No Iterations 6
smoothSolver:  Solving for Uy, Initial residual = 0.280914, Final residual = 0.0191341, No Iterations 6
GAMG:  Solving for p, Initial residual = 0.0507118, Final residual = 0.00475263, No Iterations 3
time step continuity errors : sum local = 0.0622859, global = 0.00354092, cumulative = 0.00250634
smoothSolver:  Solving for omega, Initial residual = 0.262554, Final residual = 0.0248511, No Iterations 3
smoothSolver:  Solving for k, Initial residual = 0.604843, Final residual = 0.0559617, No Iterations 4
ExecutionTime = 0.07 s  ClockTime = 0 s

scalarTransport execute: age
smoothSolver:  Solving for age, Initial residual = 0.589325, Final residual = 0.0582785, No Iterations 7

Time = 3

smoothSolver:  Solving for Ux, Initial residual = 0.223886, Final residual = 0.0150824, No Iterations 6
smoothSolver:  Solving for Uy, Initial residual = 0.10627, Final residual = 0.00949576, No Iterations 5
GAMG:  Solving for p, Initial residual = 0.0534163, Final residual = 0.00340661, No Iterations 3
time step continuity errors : sum local = 0.0194433, global = 0.00143198, cumulative = 0.00393832
smoothSolver:  Solving for omega, Initial residual = 0.263353, Final residual = 0.0251239, No Iterations 4
smoothSolver:  Solving for k, Initial residual = 0.510414, Final residual = 0.0379313, No Iterations 5
ExecutionTime = 0.08 s  ClockTime = 0 s

scalarTransport execute: age
smoothSolver:  Solving for age, Initial residual = 0.399418, Final residual = 0.0355482, No Iterations 9

Time = 4

smoothSolver:  Solving for Ux, Initial residual = 0.112274, Final residual = 0.0097469, No Iterations 4
smoothSolver:  Solving for Uy, Initial residual = 0.0524222, Final residual = 0.00471379, No Iterations 4
GAMG:  Solving for p, Initial residual = 0.0865025, Final residual = 0.00387614, No Iterations 3
time step continuity errors : sum local = 0.0108051, global = 0.000493859, cumulative = 0.00443218
smoothSolver:  Solving for omega, Initial residual = 0.15078, Final residual = 0.0102882, No Iterations 5
smoothSolver:  Solving for k, Initial residual = 0.439627, Final residual = 0.036827, No Iterations 5
ExecutionTime = 0.09 s  ClockTime = 0 s

scalarTransport execute: age
smoothSolver:  Solving for age, Initial residual = 0.291342, Final residual = 0.025168, No Iterations 9

Time = 5

smoothSolver:  Solving for Ux, Initial residual = 0.0691105, Final residual = 0.00588387, No Iterations 5
smoothSolver:  Solving for Uy, Initial residual = 0.0312074, Final residual = 0.00209595, No Iterations 5
GAMG:  Solving for p, Initial residual = 0.0768155, Final residual = 0.00322141, No Iterations 2
time step continuity errors : sum local = 0.00805933, global = -6.81476e-05, cumulative = 0.00436403
smoothSolver:  Solving for omega, Initial residual = 0.104707, Final residual = 0.00784813, No Iterations 5
smoothSolver:  Solving for k, Initial residual = 0.343208, Final residual = 0.0310958, No Iterations 5
ExecutionTime = 0.11 s  ClockTime = 0 s

scalarTransport execute: age
smoothSolver:  Solving for age, Initial residual = 0.220582, Final residual = 0.0215465, No Iterations 9

Time = 6

smoothSolver:  Solving for Ux, Initial residual = 0.0493406, Final residual = 0.00334644, No Iterations 6
smoothSolver:  Solving for Uy, Initial residual = 0.0239598, Final residual = 0.00184615, No Iterations 5
GAMG:  Solving for p, Initial residual = 0.0613208, Final residual = 0.00326723, No Iterations 2
time step continuity errors : sum local = 0.00833017, global = -0.000487827, cumulative = 0.00387621
smoothSolver:  Solving for omega, Initial residual = 0.0822928, Final residual = 0.00659693, No Iterations 5
smoothSolver:  Solving for k, Initial residual = 0.27472, Final residual = 0.0264224, No Iterations 5
ExecutionTime = 0.12 s  ClockTime = 0 s

scalarTransport execute: age
smoothSolver:  Solving for age, Initial residual = 0.177255, Final residual = 0.0165039, No Iterations 10

Time = 7

smoothSolver:  Solving for Ux, Initial residual = 0.0402284, Final residual = 0.00269139, No Iterations 6
smoothSolver:  Solving for Uy, Initial residual = 0.0204312, Final residual = 0.00168354, No Iterations 5
GAMG:  Solving for p, Initial residual = 0.0499862, Final residual = 0.00375654, No Iterations 2
time step continuity errors : sum local = 0.0098229, global = -0.000837597, cumulative = 0.00303861
smoothSolver:  Solving for omega, Initial residual = 0.0631296, Final residual = 0.00541756, No Iterations 5
smoothSolver:  Solving for k, Initial residual = 0.227551, Final residual = 0.0144454, No Iterations 6
ExecutionTime = 0.13 s  ClockTime = 0 s

scalarTransport execute: age
smoothSolver:  Solving for age, Initial residual = 0.147699, Final residual = 0.0126128, No Iterations 11

Time = 8

smoothSolver:  Solving for Ux, Initial residual = 0.0323548, Final residual = 0.00298244, No Iterations 5
smoothSolver:  Solving for Uy, Initial residual = 0.0184466, Final residual = 0.00158833, No Iterations 5
GAMG:  Solving for p, Initial residual = 0.0402975, Final residual = 0.00299895, No Iterations 2
time step continuity errors : sum local = 0.0082731, global = -0.000655359, cumulative = 0.00238325
smoothSolver:  Solving for omega, Initial residual = 0.0509417, Final residual = 0.00452782, No Iterations 5
smoothSolver:  Solving for k, Initial residual = 0.193888, Final residual = 0.0127606, No Iterations 6
ExecutionTime = 0.15 s  ClockTime = 0 s

scalarTransport execute: age
smoothSolver:  Solving for age, Initial residual = 0.128622, Final residual = 0.0112752, No Iterations 11

Time = 9

smoothSolver:  Solving for Ux, Initial residual = 0.0306626, Final residual = 0.00290211, No Iterations 5
smoothSolver:  Solving for Uy, Initial residual = 0.0170402, Final residual = 0.00146698, No Iterations 5
GAMG:  Solving for p, Initial residual = 0.0324108, Final residual = 0.00106686, No Iterations 2
time step continuity errors : sum local = 0.00311924, global = -0.000642411, cumulative = 0.00174084
smoothSolver:  Solving for omega, Initial residual = 0.0423789, Final residual = 0.00387802, No Iterations 5
smoothSolver:  Solving for k, Initial residual = 0.168288, Final residual = 0.0114198, No Iterations 6
ExecutionTime = 0.16 s  ClockTime = 0 s

scalarTransport execute: age
smoothSolver:  Solving for age, Initial residual = 0.112068, Final residual = 0.0101691, No Iterations 11

Time = 10

smoothSolver:  Solving for Ux, Initial residual = 0.0272393, Final residual = 0.00269191, No Iterations 5
smoothSolver:  Solving for Uy, Initial residual = 0.0159878, Final residual = 0.00142648, No Iterations 5
GAMG:  Solving for p, Initial residual = 0.0272612, Final residual = 0.00079063, No Iterations 2
time step continuity errors : sum local = 0.00234191, global = -0.00047403, cumulative = 0.00126681
smoothSolver:  Solving for omega, Initial residual = 0.0354894, Final residual = 0.00334148, No Iterations 5
smoothSolver:  Solving for k, Initial residual = 0.148311, Final residual = 0.0103177, No Iterations 6
ExecutionTime = 0.17 s  ClockTime = 0 s

scalarTransport execute: age
smoothSolver:  Solving for age, Initial residual = 0.0974584, Final residual = 0.00902109, No Iterations 11

Time = 11

smoothSolver:  Solving for Ux, Initial residual = 0.0253151, Final residual = 0.00167519, No Iterations 6
smoothSolver:  Solving for Uy, Initial residual = 0.0151216, Final residual = 0.00139649, No Iterations 5
GAMG:  Solving for p, Initial residual = 0.0240689, Final residual = 0.000861852, No Iterations 2
time step continuity errors : sum local = 0.00257793, global = -0.000327945, cumulative = 0.000938864
smoothSolver:  Solving for omega, Initial residual = 0.0301265, Final residual = 0.00290057, No Iterations 5
smoothSolver:  Solving for k, Initial residual = 0.132326, Final residual = 0.00939455, No Iterations 6
ExecutionTime = 0.19 s  ClockTime = 0 s

scalarTransport execute: age
smoothSolver:  Solving for age, Initial residual = 0.0849472, Final residual = 0.00811669, No Iterations 11

Time = 12

smoothSolver:  Solving for Ux, Initial residual = 0.0237864, Final residual = 0.00159279, No Iterations 6
smoothSolver:  Solving for Uy, Initial residual = 0.0145462, Final residual = 0.00137472, No Iterations 5
GAMG:  Solving for p, Initial residual = 0.0219072, Final residual = 0.000836521, No Iterations 2
time step continuity errors : sum local = 0.00252185, global = -0.00016602, cumulative = 0.000772844
smoothSolver:  Solving for omega, Initial residual = 0.0259004, Final residual = 0.00253951, No Iterations 5
smoothSolver:  Solving for k, Initial residual = 0.119278, Final residual = 0.00861291, No Iterations 6
ExecutionTime = 0.2 s  ClockTime = 0 s

scalarTransport execute: age
smoothSolver:  Solving for age, Initial residual = 0.07406, Final residual = 0.00733615, No Iterations 11

Time = 13

smoothSolver:  Solving for Ux, Initial residual = 0.022464, Final residual = 0.00151669, No Iterations 6
smoothSolver:  Solving for Uy, Initial residual = 0.0140682, Final residual = 0.00135744, No Iterations 5
GAMG:  Solving for p, Initial residual = 0.0205354, Final residual = 0.000774441, No Iterations 2
time step continuity errors : sum local = 0.00234479, global = 9.22367e-06, cumulative = 0.000782067
smoothSolver:  Solving for omega, Initial residual = 0.0225003, Final residual = 0.00223903, No Iterations 5
smoothSolver:  Solving for k, Initial residual = 0.108447, Final residual = 0.00794298, No Iterations 6
ExecutionTime = 0.21 s  ClockTime = 0 s

scalarTransport execute: age
smoothSolver:  Solving for age, Initial residual = 0.0645293, Final residual = 0.00564893, No Iterations 12

Time = 14

smoothSolver:  Solving for Ux, Initial residual = 0.0212637, Final residual = 0.00144117, No Iterations 6
smoothSolver:  Solving for Uy, Initial residual = 0.0136936, Final residual = 0.00134171, No Iterations 5
GAMG:  Solving for p, Initial residual = 0.0194505, Final residual = 0.000740317, No Iterations 2
time step continuity errors : sum local = 0.00224021, global = 0.000164696, cumulative = 0.000946763
smoothSolver:  Solving for omega, Initial residual = 0.0197353, Final residual = 0.00127033, No Iterations 6
smoothSolver:  Solving for k, Initial residual = 0.099089, Final residual = 0.00734839, No Iterations 6
ExecutionTime = 0.23 s  ClockTime = 0 s

scalarTransport execute: age
smoothSolver:  Solving for age, Initial residual = 0.0562388, Final residual = 0.00507825, No Iterations 12

Time = 15

smoothSolver:  Solving for Ux, Initial residual = 0.0200981, Final residual = 0.00136378, No Iterations 6
smoothSolver:  Solving for Uy, Initial residual = 0.0133679, Final residual = 0.00132256, No Iterations 5
GAMG:  Solving for p, Initial residual = 0.0185544, Final residual = 0.000716634, No Iterations 2
time step continuity errors : sum local = 0.00216265, global = 0.000282327, cumulative = 0.00122909
smoothSolver:  Solving for omega, Initial residual = 0.0172971, Final residual = 0.00112807, No Iterations 6
smoothSolver:  Solving for k, Initial residual = 0.0910057, Final residual = 0.00682411, No Iterations 6
ExecutionTime = 0.24 s  ClockTime = 0 s

scalarTransport execute: age
smoothSolver:  Solving for age, Initial residual = 0.049225, Final residual = 0.00456206, No Iterations 12

Time = 16

smoothSolver:  Solving for Ux, Initial residual = 0.0190327, Final residual = 0.00128828, No Iterations 6
smoothSolver:  Solving for Uy, Initial residual = 0.0130967, Final residual = 0.00130255, No Iterations 5
GAMG:  Solving for p, Initial residual = 0.0178322, Final residual = 0.000717524, No Iterations 2
time step continuity errors : sum local = 0.00215196, global = 0.000350862, cumulative = 0.00157995
smoothSolver:  Solving for omega, Initial residual = 0.0152837, Final residual = 0.00100784, No Iterations 6
smoothSolver:  Solving for k, Initial residual = 0.0841072, Final residual = 0.0063662, No Iterations 6
ExecutionTime = 0.25 s  ClockTime = 0 s

scalarTransport execute: age
smoothSolver:  Solving for age, Initial residual = 0.0432262, Final residual = 0.00408421, No Iterations 12

Time = 17

smoothSolver:  Solving for Ux, Initial residual = 0.0180524, Final residual = 0.00122055, No Iterations 6
smoothSolver:  Solving for Uy, Initial residual = 0.0128666, Final residual = 0.00128197, No Iterations 5
GAMG:  Solving for p, Initial residual = 0.0172041, Final residual = 0.000712154, No Iterations 2
time step continuity errors : sum local = 0.00211828, global = 0.000375457, cumulative = 0.00195541
smoothSolver:  Solving for omega, Initial residual = 0.0136009, Final residual = 0.00090523, No Iterations 6
smoothSolver:  Solving for k, Initial residual = 0.0781531, Final residual = 0.00596295, No Iterations 6
ExecutionTime = 0.26 s  ClockTime = 0 s

scalarTransport execute: age
smoothSolver:  Solving for age, Initial residual = 0.0381547, Final residual = 0.00363932, No Iterations 12

Time = 18

smoothSolver:  Solving for Ux, Initial residual = 0.0171562, Final residual = 0.00116001, No Iterations 6
smoothSolver:  Solving for Uy, Initial residual = 0.0126646, Final residual = 0.00126102, No Iterations 5
GAMG:  Solving for p, Initial residual = 0.0166259, Final residual = 0.000683545, No Iterations 2
time step continuity errors : sum local = 0.00201363, global = 0.000372465, cumulative = 0.00232787
smoothSolver:  Solving for omega, Initial residual = 0.01219, Final residual = 0.000817081, No Iterations 6
smoothSolver:  Solving for k, Initial residual = 0.0729511, Final residual = 0.00560476, No Iterations 6
ExecutionTime = 0.28 s  ClockTime = 0 s

scalarTransport execute: age
smoothSolver:  Solving for age, Initial residual = 0.0337168, Final residual = 0.00323193, No Iterations 12

Time = 19

smoothSolver:  Solving for Ux, Initial residual = 0.0163439, Final residual = 0.00110752, No Iterations 6
smoothSolver:  Solving for Uy, Initial residual = 0.0124338, Final residual = 0.00123974, No Iterations 5
GAMG:  Solving for p, Initial residual = 0.0160619, Final residual = 0.000654828, No Iterations 2
time step continuity errors : sum local = 0.00190894, global = 0.0003634, cumulative = 0.00269127
smoothSolver:  Solving for omega, Initial residual = 0.0109999, Final residual = 0.000740976, No Iterations 6
smoothSolver:  Solving for k, Initial residual = 0.0683708, Final residual = 0.00528448, No Iterations 6
ExecutionTime = 0.29 s  ClockTime = 0 s

scalarTransport execute: age
smoothSolver:  Solving for age, Initial residual = 0.0300161, Final residual = 0.00285811, No Iterations 12

Time = 20

smoothSolver:  Solving for Ux, Initial residual = 0.0156429, Final residual = 0.00106191, No Iterations 6
smoothSolver:  Solving for Uy, Initial residual = 0.0122094, Final residual = 0.00121757, No Iterations 5
GAMG:  Solving for p, Initial residual = 0.0155124, Final residual = 0.000619419, No Iterations 2
time step continuity errors : sum local = 0.00178707, global = 0.000348775, cumulative = 0.00304005
smoothSolver:  Solving for omega, Initial residual = 0.00998011, Final residual = 0.00067489, No Iterations 6
smoothSolver:  Solving for k, Initial residual = 0.0643025, Final residual = 0.00499621, No Iterations 6
ExecutionTime = 0.3 s  ClockTime = 0 s

scalarTransport execute: age
smoothSolver:  Solving for age, Initial residual = 0.0266416, Final residual = 0.00249978, No Iterations 12

Time = 21

smoothSolver:  Solving for Ux, Initial residual = 0.0150224, Final residual = 0.00102264, No Iterations 6
smoothSolver:  Solving for Uy, Initial residual = 0.0119538, Final residual = 0.00119398, No Iterations 5
GAMG:  Solving for p, Initial residual = 0.0149509, Final residual = 0.000586695, No Iterations 2
time step continuity errors : sum local = 0.00167527, global = 0.000331524, cumulative = 0.00337157
smoothSolver:  Solving for omega, Initial residual = 0.0090978, Final residual = 0.000617159, No Iterations 6
smoothSolver:  Solving for k, Initial residual = 0.0606618, Final residual = 0.00473518, No Iterations 6
ExecutionTime = 0.32 s  ClockTime = 0 s

scalarTransport execute: age
smoothSolver:  Solving for age, Initial residual = 0.0238781, Final residual = 0.00217101, No Iterations 12

Time = 22

smoothSolver:  Solving for Ux, Initial residual = 0.0144943, Final residual = 0.000988189, No Iterations 6
smoothSolver:  Solving for Uy, Initial residual = 0.0116637, Final residual = 0.000762254, No Iterations 6
GAMG:  Solving for p, Initial residual = 0.0143437, Final residual = 0.000563227, No Iterations 2
time step continuity errors : sum local = 0.00159182, global = 0.000317049, cumulative = 0.00368862
smoothSolver:  Solving for omega, Initial residual = 0.00832945, Final residual = 0.000566394, No Iterations 6
smoothSolver:  Solving for k, Initial residual = 0.057389, Final residual = 0.00449791, No Iterations 6
ExecutionTime = 0.33 s  ClockTime = 0 s

scalarTransport execute: age
smoothSolver:  Solving for age, Initial residual = 0.0214342, Final residual = 0.00185728, No Iterations 12

Time = 23

smoothSolver:  Solving for Ux, Initial residual = 0.0140773, Final residual = 0.000961283, No Iterations 6
smoothSolver:  Solving for Uy, Initial residual = 0.01128, Final residual = 0.000738264, No Iterations 6
GAMG:  Solving for p, Initial residual = 0.0137081, Final residual = 0.000538479, No Iterations 2
time step continuity errors : sum local = 0.0015078, global = 0.000303679, cumulative = 0.0039923
smoothSolver:  Solving for omega, Initial residual = 0.00765489, Final residual = 0.000521536, No Iterations 6
smoothSolver:  Solving for k, Initial residual = 0.0544311, Final residual = 0.00428142, No Iterations 6
ExecutionTime = 0.34 s  ClockTime = 0 s

scalarTransport execute: age
smoothSolver:  Solving for age, Initial residual = 0.0193104, Final residual = 0.00185589, No Iterations 11

Time = 24

smoothSolver:  Solving for Ux, Initial residual = 0.0136711, Final residual = 0.000935802, No Iterations 6
smoothSolver:  Solving for Uy, Initial residual = 0.0109046, Final residual = 0.000715505, No Iterations 6
GAMG:  Solving for p, Initial residual = 0.0129995, Final residual = 0.00051559, No Iterations 2
time step continuity errors : sum local = 0.00143181, global = 0.0002904, cumulative = 0.0042827
smoothSolver:  Solving for omega, Initial residual = 0.00705734, Final residual = 0.000481697, No Iterations 6
smoothSolver:  Solving for k, Initial residual = 0.0517394, Final residual = 0.00408264, No Iterations 6
ExecutionTime = 0.36 s  ClockTime = 0 s

scalarTransport execute: age
smoothSolver:  Solving for age, Initial residual = 0.0175127, Final residual = 0.00158221, No Iterations 11

Time = 25

smoothSolver:  Solving for Ux, Initial residual = 0.013281, Final residual = 0.000912398, No Iterations 6
smoothSolver:  Solving for Uy, Initial residual = 0.010552, Final residual = 0.000694579, No Iterations 6
GAMG:  Solving for p, Initial residual = 0.0122992, Final residual = 0.000493963, No Iterations 2
time step continuity errors : sum local = 0.00136121, global = 0.000277695, cumulative = 0.0045604
smoothSolver:  Solving for omega, Initial residual = 0.00652723, Final residual = 0.000446149, No Iterations 6
smoothSolver:  Solving for k, Initial residual = 0.0492802, Final residual = 0.00389955, No Iterations 6
ExecutionTime = 0.37 s  ClockTime = 0 s

scalarTransport execute: age
smoothSolver:  Solving for age, Initial residual = 0.0160047, Final residual = 0.00134836, No Iterations 11

Time = 26

smoothSolver:  Solving for Ux, Initial residual = 0.0129312, Final residual = 0.000891672, No Iterations 6
smoothSolver:  Solving for Uy, Initial residual = 0.010222, Final residual = 0.000674607, No Iterations 6
GAMG:  Solving for p, Initial residual = 0.0116512, Final residual = 0.000472617, No Iterations 2
time step continuity errors : sum local = 0.0012927, global = 0.000265625, cumulative = 0.00482602
smoothSolver:  Solving for omega, Initial residual = 0.00605623, Final residual = 0.000414346, No Iterations 6
smoothSolver:  Solving for k, Initial residual = 0.0470201, Final residual = 0.00373, No Iterations 6
ExecutionTime = 0.38 s  ClockTime = 0 s

scalarTransport execute: age
smoothSolver:  Solving for age, Initial residual = 0.0147139, Final residual = 0.00138449, No Iterations 10

Time = 27

smoothSolver:  Solving for Ux, Initial residual = 0.0126273, Final residual = 0.000874374, No Iterations 6
smoothSolver:  Solving for Uy, Initial residual = 0.00991288, Final residual = 0.000654352, No Iterations 6
GAMG:  Solving for p, Initial residual = 0.0112447, Final residual = 0.00045127, No Iterations 2
time step continuity errors : sum local = 0.00122606, global = 0.000254431, cumulative = 0.00508045
smoothSolver:  Solving for omega, Initial residual = 0.00563874, Final residual = 0.000385652, No Iterations 6
smoothSolver:  Solving for k, Initial residual = 0.0449366, Final residual = 0.00357255, No Iterations 6
ExecutionTime = 0.39 s  ClockTime = 0 s

scalarTransport execute: age
smoothSolver:  Solving for age, Initial residual = 0.0137089, Final residual = 0.00123214, No Iterations 10

Time = 28

smoothSolver:  Solving for Ux, Initial residual = 0.0123585, Final residual = 0.000860176, No Iterations 6
smoothSolver:  Solving for Uy, Initial residual = 0.00962755, Final residual = 0.000633569, No Iterations 6
GAMG:  Solving for p, Initial residual = 0.0111688, Final residual = 0.000431342, No Iterations 2
time step continuity errors : sum local = 0.0011654, global = 0.000244822, cumulative = 0.00532527
smoothSolver:  Solving for omega, Initial residual = 0.00527052, Final residual = 0.000359842, No Iterations 6
smoothSolver:  Solving for k, Initial residual = 0.0430025, Final residual = 0.00342534, No Iterations 6
ExecutionTime = 0.41 s  ClockTime = 0 s

scalarTransport execute: age
smoothSolver:  Solving for age, Initial residual = 0.0129444, Final residual = 0.00111973, No Iterations 10

Time = 29

smoothSolver:  Solving for Ux, Initial residual = 0.0121416, Final residual = 0.000849316, No Iterations 6
smoothSolver:  Solving for Uy, Initial residual = 0.00935162, Final residual = 0.000612941, No Iterations 6
GAMG:  Solving for p, Initial residual = 0.0112547, Final residual = 0.000415716, No Iterations 2
time step continuity errors : sum local = 0.00111803, global = 0.000237197, cumulative = 0.00556247
smoothSolver:  Solving for omega, Initial residual = 0.0049369, Final residual = 0.000336619, No Iterations 6
smoothSolver:  Solving for k, Initial residual = 0.0411997, Final residual = 0.00328736, No Iterations 6
ExecutionTime = 0.41 s  ClockTime = 0 s

scalarTransport execute: age
smoothSolver:  Solving for age, Initial residual = 0.0122989, Final residual = 0.00104279, No Iterations 10

Time = 30

smoothSolver:  Solving for Ux, Initial residual = 0.0119986, Final residual = 0.000841593, No Iterations 6
smoothSolver:  Solving for Uy, Initial residual = 0.00908073, Final residual = 0.000591618, No Iterations 6
GAMG:  Solving for p, Initial residual = 0.0113779, Final residual = 0.000416463, No Iterations 2
time step continuity errors : sum local = 0.00111399, global = 0.000231037, cumulative = 0.00579351
smoothSolver:  Solving for omega, Initial residual = 0.00463714, Final residual = 0.000315505, No Iterations 6
smoothSolver:  Solving for k, Initial residual = 0.0395152, Final residual = 0.00315781, No Iterations 6
ExecutionTime = 0.42 s  ClockTime = 0 s

scalarTransport execute: age
smoothSolver:  Solving for age, Initial residual = 0.0118062, Final residual = 0.000998881, No Iterations 10

Time = 31

smoothSolver:  Solving for Ux, Initial residual = 0.0119193, Final residual = 0.000836315, No Iterations 6
smoothSolver:  Solving for Uy, Initial residual = 0.00880576, Final residual = 0.00087585, No Iterations 5
GAMG:  Solving for p, Initial residual = 0.0113477, Final residual = 0.000425599, No Iterations 2
time step continuity errors : sum local = 0.00113153, global = 0.000224445, cumulative = 0.00601795
smoothSolver:  Solving for omega, Initial residual = 0.00436601, Final residual = 0.000296244, No Iterations 6
smoothSolver:  Solving for k, Initial residual = 0.0379351, Final residual = 0.00303583, No Iterations 6
ExecutionTime = 0.45 s  ClockTime = 0 s

scalarTransport execute: age
smoothSolver:  Solving for age, Initial residual = 0.0114021, Final residual = 0.000984648, No Iterations 10

Time = 32

smoothSolver:  Solving for Ux, Initial residual = 0.0118576, Final residual = 0.000831326, No Iterations 6
smoothSolver:  Solving for Uy, Initial residual = 0.00858666, Final residual = 0.000852291, No Iterations 5
GAMG:  Solving for p, Initial residual = 0.011216, Final residual = 0.000435845, No Iterations 2
time step continuity errors : sum local = 0.00115303, global = 0.000218384, cumulative = 0.00623634
smoothSolver:  Solving for omega, Initial residual = 0.00411731, Final residual = 0.000278645, No Iterations 6
smoothSolver:  Solving for k, Initial residual = 0.0364446, Final residual = 0.0029205, No Iterations 6
ExecutionTime = 0.46 s  ClockTime = 0 s

scalarTransport execute: age
smoothSolver:  Solving for age, Initial residual = 0.0111445, Final residual = 0.000990475, No Iterations 10

Time = 33

smoothSolver:  Solving for Ux, Initial residual = 0.0118528, Final residual = 0.000829558, No Iterations 6
smoothSolver:  Solving for Uy, Initial residual = 0.0083273, Final residual = 0.000823443, No Iterations 5
GAMG:  Solving for p, Initial residual = 0.0110088, Final residual = 0.000443717, No Iterations 2
time step continuity errors : sum local = 0.00116885, global = 0.000212923, cumulative = 0.00644926
smoothSolver:  Solving for omega, Initial residual = 0.00388853, Final residual = 0.000262494, No Iterations 6
smoothSolver:  Solving for k, Initial residual = 0.0350382, Final residual = 0.00281145, No Iterations 6
ExecutionTime = 0.46 s  ClockTime = 0 s

scalarTransport execute: age
smoothSolver:  Solving for age, Initial residual = 0.0109695, Final residual = 0.00100889, No Iterations 10

Time = 34

smoothSolver:  Solving for Ux, Initial residual = 0.0118888, Final residual = 0.000830261, No Iterations 6
smoothSolver:  Solving for Uy, Initial residual = 0.00801365, Final residual = 0.000789977, No Iterations 5
GAMG:  Solving for p, Initial residual = 0.0107428, Final residual = 0.000444824, No Iterations 2
time step continuity errors : sum local = 0.00116704, global = 0.00020753, cumulative = 0.00665679
smoothSolver:  Solving for omega, Initial residual = 0.00367896, Final residual = 0.000247572, No Iterations 6
smoothSolver:  Solving for k, Initial residual = 0.0337081, Final residual = 0.00270814, No Iterations 6
ExecutionTime = 0.49 s  ClockTime = 0 s

scalarTransport execute: age
smoothSolver:  Solving for age, Initial residual = 0.0108655, Final residual = 0.00102805, No Iterations 10

Time = 35

smoothSolver:  Solving for Ux, Initial residual = 0.0119507, Final residual = 0.000832834, No Iterations 6
smoothSolver:  Solving for Uy, Initial residual = 0.00767654, Final residual = 0.0007544, No Iterations 5
GAMG:  Solving for p, Initial residual = 0.0104919, Final residual = 0.000435927, No Iterations 2
time step continuity errors : sum local = 0.00113915, global = 0.000196291, cumulative = 0.00685308
smoothSolver:  Solving for omega, Initial residual = 0.00348563, Final residual = 0.000233786, No Iterations 6
smoothSolver:  Solving for k, Initial residual = 0.0324504, Final residual = 0.0026103, No Iterations 6
ExecutionTime = 0.5 s  ClockTime = 0 s

scalarTransport execute: age
smoothSolver:  Solving for age, Initial residual = 0.0108085, Final residual = 0.00104418, No Iterations 10

Time = 36

smoothSolver:  Solving for Ux, Initial residual = 0.012024, Final residual = 0.000837034, No Iterations 6
smoothSolver:  Solving for Uy, Initial residual = 0.00733158, Final residual = 0.000718613, No Iterations 5
GAMG:  Solving for p, Initial residual = 0.0101574, Final residual = 0.000428002, No Iterations 2
time step continuity errors : sum local = 0.00111336, global = 0.000185329, cumulative = 0.00703841
smoothSolver:  Solving for omega, Initial residual = 0.00331267, Final residual = 0.000220949, No Iterations 6
smoothSolver:  Solving for k, Initial residual = 0.0312609, Final residual = 0.00251768, No Iterations 6
ExecutionTime = 0.5 s  ClockTime = 0 s

scalarTransport execute: age
smoothSolver:  Solving for age, Initial residual = 0.010782, Final residual = 0.00106168, No Iterations 10

Time = 37

smoothSolver:  Solving for Ux, Initial residual = 0.0120838, Final residual = 0.000841045, No Iterations 6
smoothSolver:  Solving for Uy, Initial residual = 0.00699763, Final residual = 0.000683987, No Iterations 5
GAMG:  Solving for p, Initial residual = 0.0099211, Final residual = 0.000422961, No Iterations 2
time step continuity errors : sum local = 0.00109669, global = 0.000175291, cumulative = 0.0072137
smoothSolver:  Solving for omega, Initial residual = 0.00314627, Final residual = 0.000209064, No Iterations 6
smoothSolver:  Solving for k, Initial residual = 0.0301316, Final residual = 0.00242989, No Iterations 6
ExecutionTime = 0.51 s  ClockTime = 0 s

scalarTransport execute: age
smoothSolver:  Solving for age, Initial residual = 0.010723, Final residual = 0.00107175, No Iterations 10

Time = 38

smoothSolver:  Solving for Ux, Initial residual = 0.0121341, Final residual = 0.000844945, No Iterations 6
smoothSolver:  Solving for Uy, Initial residual = 0.0066951, Final residual = 0.000651603, No Iterations 5
GAMG:  Solving for p, Initial residual = 0.00981413, Final residual = 0.000427596, No Iterations 2
time step continuity errors : sum local = 0.0011057, global = 0.000166779, cumulative = 0.00738048
smoothSolver:  Solving for omega, Initial residual = 0.00298616, Final residual = 0.000197738, No Iterations 6
smoothSolver:  Solving for k, Initial residual = 0.0290634, Final residual = 0.00234681, No Iterations 6
ExecutionTime = 0.54 s  ClockTime = 0 s

scalarTransport execute: age
smoothSolver:  Solving for age, Initial residual = 0.0106497, Final residual = 0.000932797, No Iterations 11

Time = 39

smoothSolver:  Solving for Ux, Initial residual = 0.0121694, Final residual = 0.000848228, No Iterations 6
smoothSolver:  Solving for Uy, Initial residual = 0.00641742, Final residual = 0.000621715, No Iterations 5
GAMG:  Solving for p, Initial residual = 0.00974743, Final residual = 0.000444264, No Iterations 2
time step continuity errors : sum local = 0.00114694, global = 0.000160309, cumulative = 0.00754079
smoothSolver:  Solving for omega, Initial residual = 0.00284867, Final residual = 0.00018713, No Iterations 6
smoothSolver:  Solving for k, Initial residual = 0.0280557, Final residual = 0.00226811, No Iterations 6
ExecutionTime = 0.55 s  ClockTime = 0 s

scalarTransport execute: age
smoothSolver:  Solving for age, Initial residual = 0.0106284, Final residual = 0.000947972, No Iterations 11

Time = 40

smoothSolver:  Solving for Ux, Initial residual = 0.0122332, Final residual = 0.000851051, No Iterations 6
smoothSolver:  Solving for Uy, Initial residual = 0.00616016, Final residual = 0.000594646, No Iterations 5
GAMG:  Solving for p, Initial residual = 0.00967418, Final residual = 0.000470381, No Iterations 2
time step continuity errors : sum local = 0.00121336, global = 0.000156005, cumulative = 0.00769679
smoothSolver:  Solving for omega, Initial residual = 0.00271625, Final residual = 0.000177293, No Iterations 6
smoothSolver:  Solving for k, Initial residual = 0.0271038, Final residual = 0.00219337, No Iterations 6
ExecutionTime = 0.56 s  ClockTime = 0 s

scalarTransport execute: age
smoothSolver:  Solving for age, Initial residual = 0.010556, Final residual = 0.00096793, No Iterations 11

Time = 41

smoothSolver:  Solving for Ux, Initial residual = 0.012322, Final residual = 0.0008537, No Iterations 6
smoothSolver:  Solving for Uy, Initial residual = 0.00592577, Final residual = 0.000570919, No Iterations 5
GAMG:  Solving for p, Initial residual = 0.00961868, Final residual = 0.000503101, No Iterations 2
time step continuity errors : sum local = 0.00129698, global = 0.000158448, cumulative = 0.00785524
smoothSolver:  Solving for omega, Initial residual = 0.00259307, Final residual = 0.000259121, No Iterations 5
smoothSolver:  Solving for k, Initial residual = 0.0262231, Final residual = 0.0021237, No Iterations 6
ExecutionTime = 0.57 s  ClockTime = 0 s

scalarTransport execute: age
smoothSolver:  Solving for age, Initial residual = 0.0105173, Final residual = 0.000990243, No Iterations 11

Time = 42

smoothSolver:  Solving for Ux, Initial residual = 0.0124047, Final residual = 0.00085583, No Iterations 6
smoothSolver:  Solving for Uy, Initial residual = 0.00572932, Final residual = 0.000550967, No Iterations 5
GAMG:  Solving for p, Initial residual = 0.00960019, Final residual = 0.000531062, No Iterations 2
time step continuity errors : sum local = 0.00136948, global = 0.000163556, cumulative = 0.0080188
smoothSolver:  Solving for omega, Initial residual = 0.00249121, Final residual = 0.000247076, No Iterations 5
smoothSolver:  Solving for k, Initial residual = 0.0254015, Final residual = 0.00205817, No Iterations 6
ExecutionTime = 0.59 s  ClockTime = 0 s

scalarTransport execute: age
smoothSolver:  Solving for age, Initial residual = 0.0104667, Final residual = 0.0010115, No Iterations 11

Time = 43

smoothSolver:  Solving for Ux, Initial residual = 0.0124885, Final residual = 0.000858635, No Iterations 6
smoothSolver:  Solving for Uy, Initial residual = 0.00556935, Final residual = 0.000534517, No Iterations 5
GAMG:  Solving for p, Initial residual = 0.00961889, Final residual = 0.000557389, No Iterations 2
time step continuity errors : sum local = 0.00143848, global = 0.000170489, cumulative = 0.00818928
smoothSolver:  Solving for omega, Initial residual = 0.00239495, Final residual = 0.000235725, No Iterations 5
smoothSolver:  Solving for k, Initial residual = 0.0246187, Final residual = 0.00199544, No Iterations 6
ExecutionTime = 0.6 s  ClockTime = 0 s

scalarTransport execute: age
smoothSolver:  Solving for age, Initial residual = 0.0104094, Final residual = 0.00103334, No Iterations 11

Time = 44

smoothSolver:  Solving for Ux, Initial residual = 0.0125624, Final residual = 0.000861722, No Iterations 6
smoothSolver:  Solving for Uy, Initial residual = 0.00544405, Final residual = 0.000521946, No Iterations 5
GAMG:  Solving for p, Initial residual = 0.00965555, Final residual = 0.000580335, No Iterations 2
time step continuity errors : sum local = 0.00149936, global = 0.000177756, cumulative = 0.00836704
smoothSolver:  Solving for omega, Initial residual = 0.00230322, Final residual = 0.000224934, No Iterations 5
smoothSolver:  Solving for k, Initial residual = 0.0238744, Final residual = 0.00193549, No Iterations 6
ExecutionTime = 0.61 s  ClockTime = 0 s

scalarTransport execute: age
smoothSolver:  Solving for age, Initial residual = 0.0103468, Final residual = 0.000904042, No Iterations 12

Time = 45

smoothSolver:  Solving for Ux, Initial residual = 0.0126276, Final residual = 0.000865202, No Iterations 6
smoothSolver:  Solving for Uy, Initial residual = 0.00535121, Final residual = 0.000513271, No Iterations 5
GAMG:  Solving for p, Initial residual = 0.00970386, Final residual = 0.000599703, No Iterations 2
time step continuity errors : sum local = 0.00155198, global = 0.000183933, cumulative = 0.00855097
smoothSolver:  Solving for omega, Initial residual = 0.00221925, Final residual = 0.0002147, No Iterations 5
smoothSolver:  Solving for k, Initial residual = 0.0231644, Final residual = 0.00187803, No Iterations 6
ExecutionTime = 0.63 s  ClockTime = 0 s

scalarTransport execute: age
smoothSolver:  Solving for age, Initial residual = 0.0104084, Final residual = 0.000962445, No Iterations 12

Time = 46

smoothSolver:  Solving for Ux, Initial residual = 0.0126952, Final residual = 0.000869148, No Iterations 6
smoothSolver:  Solving for Uy, Initial residual = 0.0052923, Final residual = 0.000509013, No Iterations 5
GAMG:  Solving for p, Initial residual = 0.00974171, Final residual = 0.000617232, No Iterations 2
time step continuity errors : sum local = 0.00159925, global = 0.000189619, cumulative = 0.00874059
smoothSolver:  Solving for omega, Initial residual = 0.00214331, Final residual = 0.000205068, No Iterations 5
smoothSolver:  Solving for k, Initial residual = 0.0224878, Final residual = 0.00182297, No Iterations 6
ExecutionTime = 0.64 s  ClockTime = 0 s

scalarTransport execute: age
smoothSolver:  Solving for age, Initial residual = 0.0107467, Final residual = 0.000933567, No Iterations 13

Time = 47

smoothSolver:  Solving for Ux, Initial residual = 0.0127573, Final residual = 0.000873485, No Iterations 6
smoothSolver:  Solving for Uy, Initial residual = 0.00527047, Final residual = 0.00050942, No Iterations 5
GAMG:  Solving for p, Initial residual = 0.00979845, Final residual = 0.000630802, No Iterations 2
time step continuity errors : sum local = 0.0016348, global = 0.000192536, cumulative = 0.00893313
smoothSolver:  Solving for omega, Initial residual = 0.00207196, Final residual = 0.000196054, No Iterations 5
smoothSolver:  Solving for k, Initial residual = 0.021844, Final residual = 0.00177033, No Iterations 6
ExecutionTime = 0.65 s  ClockTime = 0 s

scalarTransport execute: age
smoothSolver:  Solving for age, Initial residual = 0.0111836, Final residual = 0.0011004, No Iterations 13

Time = 48

smoothSolver:  Solving for Ux, Initial residual = 0.012833, Final residual = 0.000878317, No Iterations 6
smoothSolver:  Solving for Uy, Initial residual = 0.00527707, Final residual = 0.000513534, No Iterations 5
GAMG:  Solving for p, Initial residual = 0.00985193, Final residual = 0.000643695, No Iterations 2
time step continuity errors : sum local = 0.00166889, global = 0.000193582, cumulative = 0.00912671
smoothSolver:  Solving for omega, Initial residual = 0.00199878, Final residual = 0.000187446, No Iterations 5
smoothSolver:  Solving for k, Initial residual = 0.0212285, Final residual = 0.00171989, No Iterations 6
ExecutionTime = 0.66 s  ClockTime = 0 s

scalarTransport execute: age
smoothSolver:  Solving for age, Initial residual = 0.0128021, Final residual = 0.00111793, No Iterations 12

Time = 49

smoothSolver:  Solving for Ux, Initial residual = 0.0129109, Final residual = 0.000883409, No Iterations 6
smoothSolver:  Solving for Uy, Initial residual = 0.00531114, Final residual = 0.000520856, No Iterations 5
GAMG:  Solving for p, Initial residual = 0.00986016, Final residual = 0.000657848, No Iterations 2
time step continuity errors : sum local = 0.00170775, global = 0.000193116, cumulative = 0.00931983
smoothSolver:  Solving for omega, Initial residual = 0.00193236, Final residual = 0.00017942, No Iterations 5
smoothSolver:  Solving for k, Initial residual = 0.0206367, Final residual = 0.00167136, No Iterations 6
ExecutionTime = 0.68 s  ClockTime = 0 s

scalarTransport execute: age
smoothSolver:  Solving for age, Initial residual = 0.0125327, Final residual = 0.00107333, No Iterations 12

Time = 50

smoothSolver:  Solving for Ux, Initial residual = 0.0129851, Final residual = 0.000888652, No Iterations 6
smoothSolver:  Solving for Uy, Initial residual = 0.00536692, Final residual = 0.000530891, No Iterations 5
GAMG:  Solving for p, Initial residual = 0.00987512, Final residual = 0.000662853, No Iterations 2
time step continuity errors : sum local = 0.00172281, global = 0.000191008, cumulative = 0.00951084
smoothSolver:  Solving for omega, Initial residual = 0.00186952, Final residual = 0.000171951, No Iterations 5
smoothSolver:  Solving for k, Initial residual = 0.0200695, Final residual = 0.00162469, No Iterations 6
ExecutionTime = 0.69 s  ClockTime = 0 s

scalarTransport execute: age
smoothSolver:  Solving for age, Initial residual = 0.0125146, Final residual = 0.00106976, No Iterations 12

Time = 51

smoothSolver:  Solving for Ux, Initial residual = 0.0130485, Final residual = 0.00089398, No Iterations 6
smoothSolver:  Solving for Uy, Initial residual = 0.00543332, Final residual = 0.000353477, No Iterations 6
GAMG:  Solving for p, Initial residual = 0.0101818, Final residual = 0.000666242, No Iterations 2
time step continuity errors : sum local = 0.00173608, global = 0.000189626, cumulative = 0.00970046
smoothSolver:  Solving for omega, Initial residual = 0.00180934, Final residual = 0.000164904, No Iterations 5
smoothSolver:  Solving for k, Initial residual = 0.0195238, Final residual = 0.00157974, No Iterations 6
ExecutionTime = 0.7 s  ClockTime = 0 s

scalarTransport execute: age
smoothSolver:  Solving for age, Initial residual = 0.0124382, Final residual = 0.00109486, No Iterations 12

Time = 52

smoothSolver:  Solving for Ux, Initial residual = 0.0131184, Final residual = 0.00089874, No Iterations 6
smoothSolver:  Solving for Uy, Initial residual = 0.00546108, Final residual = 0.000358788, No Iterations 6
GAMG:  Solving for p, Initial residual = 0.0106014, Final residual = 0.00067503, No Iterations 2
time step continuity errors : sum local = 0.00177252, global = 0.0001899, cumulative = 0.00989036
smoothSolver:  Solving for omega, Initial residual = 0.00175416, Final residual = 0.000158152, No Iterations 5
smoothSolver:  Solving for k, Initial residual = 0.018999, Final residual = 0.0015363, No Iterations 6
ExecutionTime = 0.72 s  ClockTime = 0 s

scalarTransport execute: age
smoothSolver:  Solving for age, Initial residual = 0.0124732, Final residual = 0.00112843, No Iterations 12

Time = 53

smoothSolver:  Solving for Ux, Initial residual = 0.0131556, Final residual = 0.000902085, No Iterations 6
smoothSolver:  Solving for Uy, Initial residual = 0.0055438, Final residual = 0.000367289, No Iterations 6
GAMG:  Solving for p, Initial residual = 0.0110322, Final residual = 0.000694699, No Iterations 2
time step continuity errors : sum local = 0.00184625, global = 0.000192306, cumulative = 0.0100827
smoothSolver:  Solving for omega, Initial residual = 0.00169969, Final residual = 0.000151636, No Iterations 5
smoothSolver:  Solving for k, Initial residual = 0.0184929, Final residual = 0.00149432, No Iterations 6
ExecutionTime = 0.73 s  ClockTime = 0 s

scalarTransport execute: age
smoothSolver:  Solving for age, Initial residual = 0.0128079, Final residual = 0.00116871, No Iterations 12

Time = 54

smoothSolver:  Solving for Ux, Initial residual = 0.0131663, Final residual = 0.000904366, No Iterations 6
smoothSolver:  Solving for Uy, Initial residual = 0.00567121, Final residual = 0.000378771, No Iterations 6
GAMG:  Solving for p, Initial residual = 0.0111661, Final residual = 0.000717812, No Iterations 2
time step continuity errors : sum local = 0.00188373, global = 0.000200048, cumulative = 0.0102827
smoothSolver:  Solving for omega, Initial residual = 0.00163995, Final residual = 0.000145478, No Iterations 5
smoothSolver:  Solving for k, Initial residual = 0.018006, Final residual = 0.00145382, No Iterations 6
ExecutionTime = 0.74 s  ClockTime = 0 s

scalarTransport execute: age
smoothSolver:  Solving for age, Initial residual = 0.0132119, Final residual = 0.00123493, No Iterations 12

Time = 55

smoothSolver:  Solving for Ux, Initial residual = 0.0131819, Final residual = 0.000906384, No Iterations 6
smoothSolver:  Solving for Uy, Initial residual = 0.00581731, Final residual = 0.000392591, No Iterations 6
GAMG:  Solving for p, Initial residual = 0.0112307, Final residual = 0.000711457, No Iterations 2
time step continuity errors : sum local = 0.0018492, global = 0.000208294, cumulative = 0.010491
smoothSolver:  Solving for omega, Initial residual = 0.00159524, Final residual = 0.000139266, No Iterations 5
smoothSolver:  Solving for k, Initial residual = 0.0175316, Final residual = 0.00141466, No Iterations 6
ExecutionTime = 0.76 s  ClockTime = 0 s

scalarTransport execute: age
smoothSolver:  Solving for age, Initial residual = 0.0135104, Final residual = 0.00129056, No Iterations 12

Time = 56

smoothSolver:  Solving for Ux, Initial residual = 0.0131881, Final residual = 0.000907791, No Iterations 6
smoothSolver:  Solving for Uy, Initial residual = 0.00598914, Final residual = 0.000407771, No Iterations 6
GAMG:  Solving for p, Initial residual = 0.0112367, Final residual = 0.00069428, No Iterations 2
time step continuity errors : sum local = 0.00178664, global = 0.0002163, cumulative = 0.0107073
smoothSolver:  Solving for omega, Initial residual = 0.00154339, Final residual = 0.000133204, No Iterations 5
smoothSolver:  Solving for k, Initial residual = 0.0170732, Final residual = 0.00137682, No Iterations 6
ExecutionTime = 0.77 s  ClockTime = 0 s

scalarTransport execute: age
smoothSolver:  Solving for age, Initial residual = 0.0140254, Final residual = 0.00135865, No Iterations 12

Time = 57

smoothSolver:  Solving for Ux, Initial residual = 0.0131612, Final residual = 0.000908995, No Iterations 6
smoothSolver:  Solving for Uy, Initial residual = 0.00619679, Final residual = 0.000423759, No Iterations 6
GAMG:  Solving for p, Initial residual = 0.0112299, Final residual = 0.000711345, No Iterations 2
time step continuity errors : sum local = 0.0018226, global = 0.000224025, cumulative = 0.0109313
smoothSolver:  Solving for omega, Initial residual = 0.00147838, Final residual = 0.000127718, No Iterations 5
smoothSolver:  Solving for k, Initial residual = 0.016631, Final residual = 0.00134023, No Iterations 6
ExecutionTime = 0.78 s  ClockTime = 0 s

scalarTransport execute: age
smoothSolver:  Solving for age, Initial residual = 0.0145402, Final residual = 0.00143315, No Iterations 12

Time = 58

smoothSolver:  Solving for Ux, Initial residual = 0.0131341, Final residual = 0.000909438, No Iterations 6
smoothSolver:  Solving for Uy, Initial residual = 0.00638991, Final residual = 0.000439353, No Iterations 6
GAMG:  Solving for p, Initial residual = 0.0112345, Final residual = 0.000727528, No Iterations 2
time step continuity errors : sum local = 0.00185899, global = 0.000230644, cumulative = 0.011162
smoothSolver:  Solving for omega, Initial residual = 0.00142946, Final residual = 0.000122503, No Iterations 5
smoothSolver:  Solving for k, Initial residual = 0.0162044, Final residual = 0.00130492, No Iterations 6
ExecutionTime = 0.79 s  ClockTime = 0 s

scalarTransport execute: age
smoothSolver:  Solving for age, Initial residual = 0.0152434, Final residual = 0.00149702, No Iterations 12

Time = 59

smoothSolver:  Solving for Ux, Initial residual = 0.013094, Final residual = 0.000908056, No Iterations 6
smoothSolver:  Solving for Uy, Initial residual = 0.00657467, Final residual = 0.000454601, No Iterations 6
GAMG:  Solving for p, Initial residual = 0.0111917, Final residual = 0.000743343, No Iterations 2
time step continuity errors : sum local = 0.00189563, global = 0.000235472, cumulative = 0.0113975
smoothSolver:  Solving for omega, Initial residual = 0.00138521, Final residual = 0.000117641, No Iterations 5
smoothSolver:  Solving for k, Initial residual = 0.0157939, Final residual = 0.00127085, No Iterations 6
ExecutionTime = 0.81 s  ClockTime = 0 s

scalarTransport execute: age
smoothSolver:  Solving for age, Initial residual = 0.0156916, Final residual = 0.00154032, No Iterations 12

Time = 60

smoothSolver:  Solving for Ux, Initial residual = 0.0130226, Final residual = 0.000905259, No Iterations 6
smoothSolver:  Solving for Uy, Initial residual = 0.0067549, Final residual = 0.000469288, No Iterations 6
GAMG:  Solving for p, Initial residual = 0.0110353, Final residual = 0.000761007, No Iterations 2
time step continuity errors : sum local = 0.00193483, global = 0.000237909, cumulative = 0.0116354
smoothSolver:  Solving for omega, Initial residual = 0.00133919, Final residual = 0.000113056, No Iterations 5
smoothSolver:  Solving for k, Initial residual = 0.015398, Final residual = 0.00123795, No Iterations 6
ExecutionTime = 0.82 s  ClockTime = 1 s

scalarTransport execute: age
smoothSolver:  Solving for age, Initial residual = 0.0163137, Final residual = 0.00158151, No Iterations 12

Time = 61

smoothSolver:  Solving for Ux, Initial residual = 0.0129441, Final residual = 0.000901452, No Iterations 6
smoothSolver:  Solving for Uy, Initial residual = 0.00691808, Final residual = 0.000483311, No Iterations 6
GAMG:  Solving for p, Initial residual = 0.0108165, Final residual = 0.000774767, No Iterations 2
time step continuity errors : sum local = 0.001966, global = 0.00023932, cumulative = 0.0118747
smoothSolver:  Solving for omega, Initial residual = 0.0012944, Final residual = 0.000108732, No Iterations 5
smoothSolver:  Solving for k, Initial residual = 0.0150149, Final residual = 0.00120615, No Iterations 6
ExecutionTime = 0.83 s  ClockTime = 1 s

scalarTransport execute: age
smoothSolver:  Solving for age, Initial residual = 0.0172477, Final residual = 0.00170909, No Iterations 12

Time = 62

smoothSolver:  Solving for Ux, Initial residual = 0.0128532, Final residual = 0.000896498, No Iterations 6
smoothSolver:  Solving for Uy, Initial residual = 0.00705952, Final residual = 0.000496337, No Iterations 6
GAMG:  Solving for p, Initial residual = 0.0104426, Final residual = 0.000768705, No Iterations 2
time step continuity errors : sum local = 0.00194604, global = 0.000238215, cumulative = 0.0121129
smoothSolver:  Solving for omega, Initial residual = 0.00124687, Final residual = 0.000104621, No Iterations 5
smoothSolver:  Solving for k, Initial residual = 0.0146467, Final residual = 0.0011755, No Iterations 6
ExecutionTime = 0.85 s  ClockTime = 1 s

scalarTransport execute: age
smoothSolver:  Solving for age, Initial residual = 0.0179754, Final residual = 0.00172662, No Iterations 12

Time = 63

smoothSolver:  Solving for Ux, Initial residual = 0.0127523, Final residual = 0.00089112, No Iterations 6
smoothSolver:  Solving for Uy, Initial residual = 0.00717778, Final residual = 0.00050831, No Iterations 6
GAMG:  Solving for p, Initial residual = 0.0100181, Final residual = 0.000750266, No Iterations 2
time step continuity errors : sum local = 0.00189024, global = 0.000234708, cumulative = 0.0123476
smoothSolver:  Solving for omega, Initial residual = 0.00120242, Final residual = 0.000100901, No Iterations 5
smoothSolver:  Solving for k, Initial residual = 0.0142918, Final residual = 0.00114588, No Iterations 6
ExecutionTime = 0.86 s  ClockTime = 1 s

scalarTransport execute: age
smoothSolver:  Solving for age, Initial residual = 0.0186998, Final residual = 0.00168366, No Iterations 12

Time = 64

smoothSolver:  Solving for Ux, Initial residual = 0.012632, Final residual = 0.000886077, No Iterations 6
smoothSolver:  Solving for Uy, Initial residual = 0.00727088, Final residual = 0.000518789, No Iterations 6
GAMG:  Solving for p, Initial residual = 0.0096909, Final residual = 0.000734509, No Iterations 2
time step continuity errors : sum local = 0.00184106, global = 0.000229628, cumulative = 0.0125772
smoothSolver:  Solving for omega, Initial residual = 0.00116704, Final residual = 9.74833e-05, No Iterations 5
smoothSolver:  Solving for k, Initial residual = 0.0139483, Final residual = 0.00111728, No Iterations 6
ExecutionTime = 0.87 s  ClockTime = 1 s

scalarTransport execute: age
smoothSolver:  Solving for age, Initial residual = 0.0193299, Final residual = 0.00168279, No Iterations 12

Time = 65

smoothSolver:  Solving for Ux, Initial residual = 0.0125187, Final residual = 0.000881203, No Iterations 6
smoothSolver:  Solving for Uy, Initial residual = 0.00734061, Final residual = 0.000527792, No Iterations 6
GAMG:  Solving for p, Initial residual = 0.00947644, Final residual = 0.000718598, No Iterations 2
time step continuity errors : sum local = 0.00179329, global = 0.000223571, cumulative = 0.0128008
smoothSolver:  Solving for omega, Initial residual = 0.00113864, Final residual = 9.43515e-05, No Iterations 5
smoothSolver:  Solving for k, Initial residual = 0.0136148, Final residual = 0.0010896, No Iterations 6
ExecutionTime = 0.88 s  ClockTime = 1 s

scalarTransport execute: age
smoothSolver:  Solving for age, Initial residual = 0.019467, Final residual = 0.00194229, No Iterations 11

Time = 66

smoothSolver:  Solving for Ux, Initial residual = 0.0124093, Final residual = 0.000876274, No Iterations 6
smoothSolver:  Solving for Uy, Initial residual = 0.00739118, Final residual = 0.000535349, No Iterations 6
GAMG:  Solving for p, Initial residual = 0.0093274, Final residual = 0.000702735, No Iterations 2
time step continuity errors : sum local = 0.00174632, global = 0.000216867, cumulative = 0.0130177
smoothSolver:  Solving for omega, Initial residual = 0.00111025, Final residual = 9.13152e-05, No Iterations 5
smoothSolver:  Solving for k, Initial residual = 0.0132907, Final residual = 0.00106282, No Iterations 6
ExecutionTime = 0.9 s  ClockTime = 1 s

scalarTransport execute: age
smoothSolver:  Solving for age, Initial residual = 0.0193949, Final residual = 0.00185245, No Iterations 11

Time = 67

smoothSolver:  Solving for Ux, Initial residual = 0.0123245, Final residual = 0.000871239, No Iterations 6
smoothSolver:  Solving for Uy, Initial residual = 0.00742805, Final residual = 0.000541408, No Iterations 6
GAMG:  Solving for p, Initial residual = 0.00919385, Final residual = 0.000684475, No Iterations 2
time step continuity errors : sum local = 0.00169479, global = 0.00020962, cumulative = 0.0132273
smoothSolver:  Solving for omega, Initial residual = 0.0010843, Final residual = 8.84535e-05, No Iterations 5
smoothSolver:  Solving for k, Initial residual = 0.012975, Final residual = 0.00103685, No Iterations 6
ExecutionTime = 0.91 s  ClockTime = 1 s

scalarTransport execute: age
smoothSolver:  Solving for age, Initial residual = 0.0184579, Final residual = 0.00173808, No Iterations 11

Time = 68

smoothSolver:  Solving for Ux, Initial residual = 0.0122633, Final residual = 0.000866152, No Iterations 6
smoothSolver:  Solving for Uy, Initial residual = 0.00744738, Final residual = 0.000546033, No Iterations 6
GAMG:  Solving for p, Initial residual = 0.00899842, Final residual = 0.000662698, No Iterations 2
time step continuity errors : sum local = 0.00163589, global = 0.000202099, cumulative = 0.0134294
smoothSolver:  Solving for omega, Initial residual = 0.00105551, Final residual = 8.56575e-05, No Iterations 5
smoothSolver:  Solving for k, Initial residual = 0.0126688, Final residual = 0.00101171, No Iterations 6
ExecutionTime = 0.92 s  ClockTime = 1 s

scalarTransport execute: age
smoothSolver:  Solving for age, Initial residual = 0.017061, Final residual = 0.00157176, No Iterations 11

Time = 69

smoothSolver:  Solving for Ux, Initial residual = 0.0122046, Final residual = 0.000861276, No Iterations 6
smoothSolver:  Solving for Uy, Initial residual = 0.00745042, Final residual = 0.000549374, No Iterations 6
GAMG:  Solving for p, Initial residual = 0.00877685, Final residual = 0.000641425, No Iterations 2
time step continuity errors : sum local = 0.00157892, global = 0.000189843, cumulative = 0.0136192
smoothSolver:  Solving for omega, Initial residual = 0.00102785, Final residual = 8.29892e-05, No Iterations 5
smoothSolver:  Solving for k, Initial residual = 0.0123717, Final residual = 0.00098739, No Iterations 6
ExecutionTime = 0.94 s  ClockTime = 1 s

scalarTransport execute: age
smoothSolver:  Solving for age, Initial residual = 0.0156897, Final residual = 0.00143829, No Iterations 11

Time = 70

smoothSolver:  Solving for Ux, Initial residual = 0.012165, Final residual = 0.000858785, No Iterations 6
smoothSolver:  Solving for Uy, Initial residual = 0.00743167, Final residual = 0.00055123, No Iterations 6
GAMG:  Solving for p, Initial residual = 0.00857365, Final residual = 0.000614024, No Iterations 2
time step continuity errors : sum local = 0.00150608, global = 0.000177873, cumulative = 0.0137971
smoothSolver:  Solving for omega, Initial residual = 0.000999895, Final residual = 8.04737e-05, No Iterations 5
smoothSolver:  Solving for k, Initial residual = 0.0120837, Final residual = 0.000963825, No Iterations 6
ExecutionTime = 0.95 s  ClockTime = 1 s

scalarTransport execute: age
smoothSolver:  Solving for age, Initial residual = 0.0147806, Final residual = 0.00142409, No Iterations 11

Time = 71

smoothSolver:  Solving for Ux, Initial residual = 0.0121147, Final residual = 0.000855578, No Iterations 6
smoothSolver:  Solving for Uy, Initial residual = 0.00740388, Final residual = 0.000552271, No Iterations 6
GAMG:  Solving for p, Initial residual = 0.00840405, Final residual = 0.000590795, No Iterations 2
time step continuity errors : sum local = 0.00144249, global = 0.000165239, cumulative = 0.0139623
smoothSolver:  Solving for omega, Initial residual = 0.000973979, Final residual = 7.80955e-05, No Iterations 5
smoothSolver:  Solving for k, Initial residual = 0.0118036, Final residual = 0.000940941, No Iterations 6
ExecutionTime = 0.96 s  ClockTime = 1 s

scalarTransport execute: age
smoothSolver:  Solving for age, Initial residual = 0.0140979, Final residual = 0.00129848, No Iterations 12

Time = 72

smoothSolver:  Solving for Ux, Initial residual = 0.0120484, Final residual = 0.000850944, No Iterations 6
smoothSolver:  Solving for Uy, Initial residual = 0.00736485, Final residual = 0.000552341, No Iterations 6
GAMG:  Solving for p, Initial residual = 0.00831131, Final residual = 0.000569786, No Iterations 2
time step continuity errors : sum local = 0.00138495, global = 0.000151584, cumulative = 0.0141139
smoothSolver:  Solving for omega, Initial residual = 0.000949659, Final residual = 7.58511e-05, No Iterations 5
smoothSolver:  Solving for k, Initial residual = 0.0115329, Final residual = 0.000918665, No Iterations 6
ExecutionTime = 0.98 s  ClockTime = 1 s

scalarTransport execute: age
smoothSolver:  Solving for age, Initial residual = 0.0137154, Final residual = 0.00128418, No Iterations 12

Time = 73

smoothSolver:  Solving for Ux, Initial residual = 0.0119695, Final residual = 0.000845081, No Iterations 6
smoothSolver:  Solving for Uy, Initial residual = 0.0073224, Final residual = 0.00055164, No Iterations 6
GAMG:  Solving for p, Initial residual = 0.00826264, Final residual = 0.000552104, No Iterations 2
time step continuity errors : sum local = 0.00133587, global = 0.000138493, cumulative = 0.0142524
smoothSolver:  Solving for omega, Initial residual = 0.000928558, Final residual = 7.37054e-05, No Iterations 5
smoothSolver:  Solving for k, Initial residual = 0.0112703, Final residual = 0.000896953, No Iterations 6
ExecutionTime = 0.99 s  ClockTime = 1 s

scalarTransport execute: age
smoothSolver:  Solving for age, Initial residual = 0.0136248, Final residual = 0.00124542, No Iterations 12

Time = 74

smoothSolver:  Solving for Ux, Initial residual = 0.011883, Final residual = 0.000838411, No Iterations 6
smoothSolver:  Solving for Uy, Initial residual = 0.00727481, Final residual = 0.000550146, No Iterations 6
GAMG:  Solving for p, Initial residual = 0.00820401, Final residual = 0.000539878, No Iterations 2
time step continuity errors : sum local = 0.00130042, global = 0.000126573, cumulative = 0.014379
smoothSolver:  Solving for omega, Initial residual = 0.000907277, Final residual = 7.1644e-05, No Iterations 5
smoothSolver:  Solving for k, Initial residual = 0.0110139, Final residual = 0.000875735, No Iterations 6
ExecutionTime = 1 s  ClockTime = 1 s

scalarTransport execute: age
smoothSolver:  Solving for age, Initial residual = 0.0133988, Final residual = 0.00122492, No Iterations 12

Time = 75

smoothSolver:  Solving for Ux, Initial residual = 0.011791, Final residual = 0.000831323, No Iterations 6
smoothSolver:  Solving for Uy, Initial residual = 0.00722447, Final residual = 0.000547847, No Iterations 6
GAMG:  Solving for p, Initial residual = 0.00815395, Final residual = 0.000533181, No Iterations 2
time step continuity errors : sum local = 0.00127872, global = 0.00011626, cumulative = 0.0144953
smoothSolver:  Solving for omega, Initial residual = 0.000886113, Final residual = 6.96721e-05, No Iterations 5
smoothSolver:  Solving for k, Initial residual = 0.0107638, Final residual = 0.000854994, No Iterations 6
ExecutionTime = 1.01 s  ClockTime = 1 s

scalarTransport execute: age
smoothSolver:  Solving for age, Initial residual = 0.0131797, Final residual = 0.00122276, No Iterations 12

Time = 76

smoothSolver:  Solving for Ux, Initial residual = 0.011694, Final residual = 0.000823687, No Iterations 6
smoothSolver:  Solving for Uy, Initial residual = 0.00716788, Final residual = 0.000544777, No Iterations 6
GAMG:  Solving for p, Initial residual = 0.00810488, Final residual = 0.000529606, No Iterations 2
time step continuity errors : sum local = 0.00126438, global = 0.000107924, cumulative = 0.0146032
smoothSolver:  Solving for omega, Initial residual = 0.000866826, Final residual = 6.7792e-05, No Iterations 5
smoothSolver:  Solving for k, Initial residual = 0.0105187, Final residual = 0.000834673, No Iterations 6
ExecutionTime = 1.03 s  ClockTime = 1 s

scalarTransport execute: age
smoothSolver:  Solving for age, Initial residual = 0.0129683, Final residual = 0.00124405, No Iterations 12

Time = 77

smoothSolver:  Solving for Ux, Initial residual = 0.0115841, Final residual = 0.000815442, No Iterations 6
smoothSolver:  Solving for Uy, Initial residual = 0.00710478, Final residual = 0.000540641, No Iterations 6
GAMG:  Solving for p, Initial residual = 0.00808827, Final residual = 0.000524331, No Iterations 2
time step continuity errors : sum local = 0.00124574, global = 0.000111858, cumulative = 0.014715
smoothSolver:  Solving for omega, Initial residual = 0.000845145, Final residual = 6.59002e-05, No Iterations 5
smoothSolver:  Solving for k, Initial residual = 0.010278, Final residual = 0.000814724, No Iterations 6
ExecutionTime = 1.04 s  ClockTime = 1 s

scalarTransport execute: age
smoothSolver:  Solving for age, Initial residual = 0.01283, Final residual = 0.00127368, No Iterations 12

Time = 78

smoothSolver:  Solving for Ux, Initial residual = 0.0114459, Final residual = 0.00080515, No Iterations 6
smoothSolver:  Solving for Uy, Initial residual = 0.00704617, Final residual = 0.000536187, No Iterations 6
GAMG:  Solving for p, Initial residual = 0.00808414, Final residual = 0.000527695, No Iterations 2
time step continuity errors : sum local = 0.00124793, global = 0.000106656, cumulative = 0.0148217
smoothSolver:  Solving for omega, Initial residual = 0.000828809, Final residual = 6.4065e-05, No Iterations 5
smoothSolver:  Solving for k, Initial residual = 0.0100412, Final residual = 0.000795143, No Iterations 6
ExecutionTime = 1.04 s  ClockTime = 1 s

scalarTransport execute: age
smoothSolver:  Solving for age, Initial residual = 0.0126109, Final residual = 0.0011251, No Iterations 13

Time = 79

smoothSolver:  Solving for Ux, Initial residual = 0.0113307, Final residual = 0.000796765, No Iterations 6
smoothSolver:  Solving for Uy, Initial residual = 0.00696171, Final residual = 0.00052887, No Iterations 6
GAMG:  Solving for p, Initial residual = 0.00808817, Final residual = 0.000520165, No Iterations 2
time step continuity errors : sum local = 0.00122374, global = 0.000104602, cumulative = 0.0149263
smoothSolver:  Solving for omega, Initial residual = 0.000808894, Final residual = 6.23367e-05, No Iterations 5
smoothSolver:  Solving for k, Initial residual = 0.00980899, Final residual = 0.000775884, No Iterations 6
ExecutionTime = 1.07 s  ClockTime = 1 s

scalarTransport execute: age
smoothSolver:  Solving for age, Initial residual = 0.0123014, Final residual = 0.00112968, No Iterations 13

Time = 80

smoothSolver:  Solving for Ux, Initial residual = 0.0112011, Final residual = 0.000787654, No Iterations 6
smoothSolver:  Solving for Uy, Initial residual = 0.00687806, Final residual = 0.000521545, No Iterations 6
GAMG:  Solving for p, Initial residual = 0.00810665, Final residual = 0.00051491, No Iterations 2
time step continuity errors : sum local = 0.00120472, global = 0.00011329, cumulative = 0.0150396
smoothSolver:  Solving for omega, Initial residual = 0.000790627, Final residual = 6.06238e-05, No Iterations 5
smoothSolver:  Solving for k, Initial residual = 0.00958026, Final residual = 0.000756898, No Iterations 6
ExecutionTime = 1.08 s  ClockTime = 1 s

scalarTransport execute: age
smoothSolver:  Solving for age, Initial residual = 0.0118676, Final residual = 0.0011386, No Iterations 13

Time = 81

smoothSolver:  Solving for Ux, Initial residual = 0.0110354, Final residual = 0.000775779, No Iterations 6
smoothSolver:  Solving for Uy, Initial residual = 0.00678589, Final residual = 0.00051368, No Iterations 6
GAMG:  Solving for p, Initial residual = 0.00808908, Final residual = 0.000514957, No Iterations 2
time step continuity errors : sum local = 0.00119821, global = 0.00011014, cumulative = 0.0151497
smoothSolver:  Solving for omega, Initial residual = 0.000775758, Final residual = 5.89326e-05, No Iterations 5
smoothSolver:  Solving for k, Initial residual = 0.00935379, Final residual = 0.000738211, No Iterations 6
ExecutionTime = 1.09 s  ClockTime = 1 s

scalarTransport execute: age
smoothSolver:  Solving for age, Initial residual = 0.011402, Final residual = 0.0010072, No Iterations 14

Time = 82

smoothSolver:  Solving for Ux, Initial residual = 0.0109003, Final residual = 0.000766204, No Iterations 6
smoothSolver:  Solving for Uy, Initial residual = 0.00665516, Final residual = 0.000502517, No Iterations 6
GAMG:  Solving for p, Initial residual = 0.00802466, Final residual = 0.000500021, No Iterations 2
time step continuity errors : sum local = 0.00115577, global = 0.000109392, cumulative = 0.0152591
smoothSolver:  Solving for omega, Initial residual = 0.000757687, Final residual = 5.73058e-05, No Iterations 5
smoothSolver:  Solving for k, Initial residual = 0.00913138, Final residual = 0.000719782, No Iterations 6
ExecutionTime = 1.11 s  ClockTime = 1 s

scalarTransport execute: age
smoothSolver:  Solving for age, Initial residual = 0.0110678, Final residual = 0.00102324, No Iterations 14

Time = 83

smoothSolver:  Solving for Ux, Initial residual = 0.0107516, Final residual = 0.000755738, No Iterations 6
smoothSolver:  Solving for Uy, Initial residual = 0.00652612, Final residual = 0.000491611, No Iterations 6
GAMG:  Solving for p, Initial residual = 0.00795938, Final residual = 0.000487247, No Iterations 2
time step continuity errors : sum local = 0.00111878, global = 0.000108822, cumulative = 0.0153679
smoothSolver:  Solving for omega, Initial residual = 0.000741103, Final residual = 5.56406e-05, No Iterations 5
smoothSolver:  Solving for k, Initial residual = 0.00891097, Final residual = 0.000701609, No Iterations 6
ExecutionTime = 1.12 s  ClockTime = 1 s

scalarTransport execute: age
smoothSolver:  Solving for age, Initial residual = 0.0108156, Final residual = 0.00103743, No Iterations 14

Time = 84

smoothSolver:  Solving for Ux, Initial residual = 0.0105893, Final residual = 0.000744213, No Iterations 6
smoothSolver:  Solving for Uy, Initial residual = 0.00638559, Final residual = 0.000479554, No Iterations 6
GAMG:  Solving for p, Initial residual = 0.00787884, Final residual = 0.000483513, No Iterations 2
time step continuity errors : sum local = 0.00110305, global = 0.000121702, cumulative = 0.0154896
smoothSolver:  Solving for omega, Initial residual = 0.000720631, Final residual = 5.38778e-05, No Iterations 5
smoothSolver:  Solving for k, Initial residual = 0.00869345, Final residual = 0.000683703, No Iterations 6
ExecutionTime = 1.12 s  ClockTime = 1 s

scalarTransport execute: age
smoothSolver:  Solving for age, Initial residual = 0.0106164, Final residual = 0.00105596, No Iterations 14

Time = 85

smoothSolver:  Solving for Ux, Initial residual = 0.0103923, Final residual = 0.000729858, No Iterations 6
smoothSolver:  Solving for Uy, Initial residual = 0.00624153, Final residual = 0.00046728, No Iterations 6
GAMG:  Solving for p, Initial residual = 0.00780124, Final residual = 0.000472856, No Iterations 2
time step continuity errors : sum local = 0.00107289, global = 0.000116868, cumulative = 0.0156065
smoothSolver:  Solving for omega, Initial residual = 0.000708342, Final residual = 5.22183e-05, No Iterations 5
smoothSolver:  Solving for k, Initial residual = 0.00847781, Final residual = 0.000666013, No Iterations 6
ExecutionTime = 1.15 s  ClockTime = 1 s

scalarTransport execute: age
smoothSolver:  Solving for age, Initial residual = 0.0105686, Final residual = 0.000935917, No Iterations 15

Time = 86

smoothSolver:  Solving for Ux, Initial residual = 0.0102239, Final residual = 0.0007179, No Iterations 6
smoothSolver:  Solving for Uy, Initial residual = 0.00605654, Final residual = 0.000451395, No Iterations 6
GAMG:  Solving for p, Initial residual = 0.00764639, Final residual = 0.000452916, No Iterations 2
time step continuity errors : sum local = 0.00102128, global = 0.000114806, cumulative = 0.0157213
smoothSolver:  Solving for omega, Initial residual = 0.000690758, Final residual = 5.06116e-05, No Iterations 5
smoothSolver:  Solving for k, Initial residual = 0.00826528, Final residual = 0.00064856, No Iterations 6
ExecutionTime = 1.16 s  ClockTime = 1 s

scalarTransport execute: age
smoothSolver:  Solving for age, Initial residual = 0.0105347, Final residual = 0.000933492, No Iterations 15

Time = 87

smoothSolver:  Solving for Ux, Initial residual = 0.0100309, Final residual = 0.000704423, No Iterations 6
smoothSolver:  Solving for Uy, Initial residual = 0.00588592, Final residual = 0.000436965, No Iterations 6
GAMG:  Solving for p, Initial residual = 0.00751948, Final residual = 0.000443576, No Iterations 2
time step continuity errors : sum local = 0.000994738, global = 0.000113063, cumulative = 0.0158344
smoothSolver:  Solving for omega, Initial residual = 0.000674941, Final residual = 4.90011e-05, No Iterations 5
smoothSolver:  Solving for k, Initial residual = 0.00805387, Final residual = 0.000631347, No Iterations 6
ExecutionTime = 1.17 s  ClockTime = 1 s

scalarTransport execute: age
smoothSolver:  Solving for age, Initial residual = 0.0104648, Final residual = 0.000928765, No Iterations 15

Time = 88

smoothSolver:  Solving for Ux, Initial residual = 0.00982542, Final residual = 0.000689466, No Iterations 6
smoothSolver:  Solving for Uy, Initial residual = 0.00571048, Final residual = 0.000422123, No Iterations 6
GAMG:  Solving for p, Initial residual = 0.0074087, Final residual = 0.000441231, No Iterations 2
time step continuity errors : sum local = 0.000984452, global = 0.000111672, cumulative = 0.015946
smoothSolver:  Solving for omega, Initial residual = 0.000652293, Final residual = 4.72137e-05, No Iterations 5
smoothSolver:  Solving for k, Initial residual = 0.00784448, Final residual = 0.000614439, No Iterations 6
ExecutionTime = 1.19 s  ClockTime = 1 s

scalarTransport execute: age
smoothSolver:  Solving for age, Initial residual = 0.0103188, Final residual = 0.000918586, No Iterations 15

Time = 89

smoothSolver:  Solving for Ux, Initial residual = 0.00960354, Final residual = 0.000673509, No Iterations 6
smoothSolver:  Solving for Uy, Initial residual = 0.00552551, Final residual = 0.000406449, No Iterations 6
GAMG:  Solving for p, Initial residual = 0.00728132, Final residual = 0.000439599, No Iterations 2
time step continuity errors : sum local = 0.000976355, global = 0.000110257, cumulative = 0.0160563
smoothSolver:  Solving for omega, Initial residual = 0.000636138, Final residual = 4.57435e-05, No Iterations 5
smoothSolver:  Solving for k, Initial residual = 0.00763699, Final residual = 0.000597702, No Iterations 6
ExecutionTime = 1.2 s  ClockTime = 1 s

scalarTransport execute: age
smoothSolver:  Solving for age, Initial residual = 0.0100962, Final residual = 0.000894794, No Iterations 15

Time = 90

smoothSolver:  Solving for Ux, Initial residual = 0.00937109, Final residual = 0.000656965, No Iterations 6
smoothSolver:  Solving for Uy, Initial residual = 0.00533779, Final residual = 0.00039045, No Iterations 6
GAMG:  Solving for p, Initial residual = 0.00714912, Final residual = 0.000437787, No Iterations 2
time step continuity errors : sum local = 0.000967677, global = 0.000109233, cumulative = 0.0161655
smoothSolver:  Solving for omega, Initial residual = 0.000621068, Final residual = 4.43736e-05, No Iterations 5
smoothSolver:  Solving for k, Initial residual = 0.00743156, Final residual = 0.000581158, No Iterations 6
ExecutionTime = 1.21 s  ClockTime = 1 s

scalarTransport execute: age
smoothSolver:  Solving for age, Initial residual = 0.00971623, Final residual = 0.000969494, No Iterations 14

Time = 91

smoothSolver:  Solving for Ux, Initial residual = 0.00912831, Final residual = 0.000639927, No Iterations 6
smoothSolver:  Solving for Uy, Initial residual = 0.00515249, Final residual = 0.000374459, No Iterations 6
GAMG:  Solving for p, Initial residual = 0.00701376, Final residual = 0.000434769, No Iterations 2
time step continuity errors : sum local = 0.000956754, global = 0.000108347, cumulative = 0.0162739
smoothSolver:  Solving for omega, Initial residual = 0.00060508, Final residual = 4.30108e-05, No Iterations 5
smoothSolver:  Solving for k, Initial residual = 0.00722739, Final residual = 0.000564807, No Iterations 6
ExecutionTime = 1.22 s  ClockTime = 1 s

scalarTransport execute: age
smoothSolver:  Solving for age, Initial residual = 0.00930203, Final residual = 0.000888852, No Iterations 14

Time = 92

smoothSolver:  Solving for Ux, Initial residual = 0.00888076, Final residual = 0.0006225, No Iterations 6
smoothSolver:  Solving for Uy, Initial residual = 0.00496953, Final residual = 0.000358523, No Iterations 6
GAMG:  Solving for p, Initial residual = 0.00686736, Final residual = 0.00043005, No Iterations 2
time step continuity errors : sum local = 0.000942755, global = 0.000107861, cumulative = 0.0163817
smoothSolver:  Solving for omega, Initial residual = 0.000588999, Final residual = 4.17188e-05, No Iterations 5
smoothSolver:  Solving for k, Initial residual = 0.00702543, Final residual = 0.000548662, No Iterations 6
ExecutionTime = 1.24 s  ClockTime = 1 s

scalarTransport execute: age
smoothSolver:  Solving for age, Initial residual = 0.00892621, Final residual = 0.000812367, No Iterations 14

Time = 93

smoothSolver:  Solving for Ux, Initial residual = 0.00862875, Final residual = 0.000604594, No Iterations 6
smoothSolver:  Solving for Uy, Initial residual = 0.00478622, Final residual = 0.000342685, No Iterations 6
GAMG:  Solving for p, Initial residual = 0.00670709, Final residual = 0.000423266, No Iterations 2
time step continuity errors : sum local = 0.000925023, global = 0.000107569, cumulative = 0.0164893
smoothSolver:  Solving for omega, Initial residual = 0.000573638, Final residual = 4.0495e-05, No Iterations 5
smoothSolver:  Solving for k, Initial residual = 0.00682558, Final residual = 0.0005327, No Iterations 6
ExecutionTime = 1.25 s  ClockTime = 1 s

scalarTransport execute: age
smoothSolver:  Solving for age, Initial residual = 0.00852289, Final residual = 0.000740176, No Iterations 14

Time = 94

smoothSolver:  Solving for Ux, Initial residual = 0.00836536, Final residual = 0.000586159, No Iterations 6
smoothSolver:  Solving for Uy, Initial residual = 0.00460669, Final residual = 0.00032685, No Iterations 6
GAMG:  Solving for p, Initial residual = 0.00653742, Final residual = 0.000414313, No Iterations 2
time step continuity errors : sum local = 0.000903268, global = 0.000107414, cumulative = 0.0165967
smoothSolver:  Solving for omega, Initial residual = 0.000558737, Final residual = 3.93153e-05, No Iterations 5
smoothSolver:  Solving for k, Initial residual = 0.0066278, Final residual = 0.000516917, No Iterations 6
ExecutionTime = 1.26 s  ClockTime = 1 s

scalarTransport execute: age
smoothSolver:  Solving for age, Initial residual = 0.00808842, Final residual = 0.000767611, No Iterations 13

Time = 95

smoothSolver:  Solving for Ux, Initial residual = 0.0080961, Final residual = 0.00056732, No Iterations 6
smoothSolver:  Solving for Uy, Initial residual = 0.00443169, Final residual = 0.000311119, No Iterations 6
GAMG:  Solving for p, Initial residual = 0.00637142, Final residual = 0.000403553, No Iterations 2
time step continuity errors : sum local = 0.000877935, global = 0.000107492, cumulative = 0.0167042
smoothSolver:  Solving for omega, Initial residual = 0.000542952, Final residual = 3.81704e-05, No Iterations 5
smoothSolver:  Solving for k, Initial residual = 0.00643225, Final residual = 0.000501277, No Iterations 6
ExecutionTime = 1.28 s  ClockTime = 1 s

scalarTransport execute: age
smoothSolver:  Solving for age, Initial residual = 0.00768519, Final residual = 0.000696425, No Iterations 13

Time = 96

smoothSolver:  Solving for Ux, Initial residual = 0.00782611, Final residual = 0.000548296, No Iterations 6
[...]

Time = 477

smoothSolver:  Solving for Ux, Initial residual = 9.73003e-07, Final residual = 8.80846e-08, No Iterations 5
smoothSolver:  Solving for Uy, Initial residual = 6.90796e-07, Final residual = 6.11348e-08, No Iterations 5
GAMG:  Solving for p, Initial residual = 2.72344e-06, Final residual = 1.39943e-07, No Iterations 2
time step continuity errors : sum local = 3.03372e-07, global = 6.96068e-09, cumulative = 0.0214402
smoothSolver:  Solving for omega, Initial residual = 1.09811e-07, Final residual = 1.08449e-08, No Iterations 4
smoothSolver:  Solving for k, Initial residual = 3.1028e-07, Final residual = 3.05463e-08, No Iterations 5
ExecutionTime = 6.06 s  ClockTime = 6 s

scalarTransport execute: age
smoothSolver:  Solving for age, Initial residual = 0.000346648, Final residual = 3.18941e-05, No Iterations 15

Time = 478

smoothSolver:  Solving for Ux, Initial residual = 9.32612e-07, Final residual = 8.43635e-08, No Iterations 5
smoothSolver:  Solving for Uy, Initial residual = 6.63137e-07, Final residual = 5.86665e-08, No Iterations 5
GAMG:  Solving for p, Initial residual = 2.62137e-06, Final residual = 1.34861e-07, No Iterations 2
time step continuity errors : sum local = 2.92354e-07, global = 6.7244e-09, cumulative = 0.0214402
smoothSolver:  Solving for omega, Initial residual = 1.0555e-07, Final residual = 1.04569e-08, No Iterations 4
smoothSolver:  Solving for k, Initial residual = 3.03195e-07, Final residual = 2.99998e-08, No Iterations 5
ExecutionTime = 6.07 s  ClockTime = 6 s

scalarTransport execute: age
smoothSolver:  Solving for age, Initial residual = 0.000345783, Final residual = 3.18165e-05, No Iterations 15

Time = 479

smoothSolver:  Solving for Ux, Initial residual = 8.93137e-07, Final residual = 8.07226e-08, No Iterations 5
smoothSolver:  Solving for Uy, Initial residual = 6.36241e-07, Final residual = 5.6257e-08, No Iterations 5
GAMG:  Solving for p, Initial residual = 2.519e-06, Final residual = 1.28165e-07, No Iterations 2
time step continuity errors : sum local = 2.7784e-07, global = 4.87026e-09, cumulative = 0.0214402
smoothSolver:  Solving for omega, Initial residual = 1.02098e-07, Final residual = 1.00859e-08, No Iterations 4
smoothSolver:  Solving for k, Initial residual = 2.96502e-07, Final residual = 2.94795e-08, No Iterations 5
ExecutionTime = 6.08 s  ClockTime = 6 s

scalarTransport execute: age
smoothSolver:  Solving for age, Initial residual = 0.000344922, Final residual = 3.17389e-05, No Iterations 15

Time = 480

smoothSolver:  Solving for Ux, Initial residual = 8.53487e-07, Final residual = 7.70333e-08, No Iterations 5
smoothSolver:  Solving for Uy, Initial residual = 6.09766e-07, Final residual = 5.38625e-08, No Iterations 5
GAMG:  Solving for p, Initial residual = 2.42097e-06, Final residual = 1.23998e-07, No Iterations 2
time step continuity errors : sum local = 2.68806e-07, global = 5.51597e-09, cumulative = 0.0214402
smoothSolver:  Solving for omega, Initial residual = 9.75082e-08, Final residual = 9.71871e-09, No Iterations 4
smoothSolver:  Solving for k, Initial residual = 2.89793e-07, Final residual = 2.89753e-08, No Iterations 5
ExecutionTime = 6.1 s  ClockTime = 6 s

scalarTransport execute: age
smoothSolver:  Solving for age, Initial residual = 0.000344066, Final residual = 3.16617e-05, No Iterations 15

Time = 481

smoothSolver:  Solving for Ux, Initial residual = 8.15911e-07, Final residual = 7.35904e-08, No Iterations 5
smoothSolver:  Solving for Uy, Initial residual = 5.86387e-07, Final residual = 5.18556e-08, No Iterations 5
GAMG:  Solving for p, Initial residual = 2.33054e-06, Final residual = 1.20195e-07, No Iterations 2
time step continuity errors : sum local = 2.60562e-07, global = 5.84473e-09, cumulative = 0.0214402
smoothSolver:  Solving for omega, Initial residual = 9.41645e-08, Final residual = 9.3587e-09, No Iterations 4
smoothSolver:  Solving for k, Initial residual = 2.83581e-07, Final residual = 1.82826e-08, No Iterations 6
ExecutionTime = 6.11 s  ClockTime = 6 s

scalarTransport execute: age
smoothSolver:  Solving for age, Initial residual = 0.000343216, Final residual = 3.15848e-05, No Iterations 15

Time = 482

smoothSolver:  Solving for Ux, Initial residual = 7.79085e-07, Final residual = 7.01696e-08, No Iterations 5
smoothSolver:  Solving for Uy, Initial residual = 5.62712e-07, Final residual = 4.97521e-08, No Iterations 5
GAMG:  Solving for p, Initial residual = 2.24015e-06, Final residual = 1.15856e-07, No Iterations 2
time step continuity errors : sum local = 2.51155e-07, global = 6.17849e-09, cumulative = 0.0214402
smoothSolver:  Solving for omega, Initial residual = 9.07975e-08, Final residual = 9.02706e-09, No Iterations 4
smoothSolver:  Solving for k, Initial residual = 2.77145e-07, Final residual = 1.79834e-08, No Iterations 6
ExecutionTime = 6.12 s  ClockTime = 6 s

scalarTransport execute: age
smoothSolver:  Solving for age, Initial residual = 0.000342369, Final residual = 3.15081e-05, No Iterations 15

Time = 483

smoothSolver:  Solving for Ux, Initial residual = 7.43681e-07, Final residual = 6.68646e-08, No Iterations 5
smoothSolver:  Solving for Uy, Initial residual = 5.39337e-07, Final residual = 4.76461e-08, No Iterations 5
GAMG:  Solving for p, Initial residual = 2.14959e-06, Final residual = 1.11121e-07, No Iterations 2
time step continuity errors : sum local = 2.40891e-07, global = 5.83791e-09, cumulative = 0.0214403
smoothSolver:  Solving for omega, Initial residual = 8.76178e-08, Final residual = 8.70048e-09, No Iterations 4
smoothSolver:  Solving for k, Initial residual = 2.71068e-07, Final residual = 1.77004e-08, No Iterations 6
ExecutionTime = 6.13 s  ClockTime = 6 s

scalarTransport execute: age
smoothSolver:  Solving for age, Initial residual = 0.000341527, Final residual = 3.14316e-05, No Iterations 15

Time = 484

smoothSolver:  Solving for Ux, Initial residual = 7.09183e-07, Final residual = 6.36524e-08, No Iterations 5
smoothSolver:  Solving for Uy, Initial residual = 5.16545e-07, Final residual = 4.56017e-08, No Iterations 5
GAMG:  Solving for p, Initial residual = 2.06219e-06, Final residual = 1.05302e-07, No Iterations 2
time step continuity errors : sum local = 2.28276e-07, global = 4.10884e-09, cumulative = 0.0214403
smoothSolver:  Solving for omega, Initial residual = 8.45487e-08, Final residual = 8.38362e-09, No Iterations 4
smoothSolver:  Solving for k, Initial residual = 2.65336e-07, Final residual = 1.74336e-08, No Iterations 6
ExecutionTime = 6.15 s  ClockTime = 6 s

scalarTransport execute: age
smoothSolver:  Solving for age, Initial residual = 0.000340687, Final residual = 3.13553e-05, No Iterations 15

Time = 485

smoothSolver:  Solving for Ux, Initial residual = 6.74763e-07, Final residual = 6.04066e-08, No Iterations 5
smoothSolver:  Solving for Uy, Initial residual = 4.9409e-07, Final residual = 4.35713e-08, No Iterations 5
GAMG:  Solving for p, Initial residual = 1.97804e-06, Final residual = 1.01782e-07, No Iterations 2
time step continuity errors : sum local = 2.20646e-07, global = 4.48667e-09, cumulative = 0.0214403
smoothSolver:  Solving for omega, Initial residual = 8.05668e-08, Final residual = 8.06867e-09, No Iterations 4
smoothSolver:  Solving for k, Initial residual = 2.59805e-07, Final residual = 1.71754e-08, No Iterations 6
ExecutionTime = 6.16 s  ClockTime = 6 s

scalarTransport execute: age
smoothSolver:  Solving for age, Initial residual = 0.000339853, Final residual = 3.12794e-05, No Iterations 15

Time = 486

smoothSolver:  Solving for Ux, Initial residual = 6.4188e-07, Final residual = 5.73728e-08, No Iterations 5
smoothSolver:  Solving for Uy, Initial residual = 4.74151e-07, Final residual = 4.18661e-08, No Iterations 5
GAMG:  Solving for p, Initial residual = 1.90064e-06, Final residual = 9.85317e-08, No Iterations 2
time step continuity errors : sum local = 2.136e-07, global = 4.51379e-09, cumulative = 0.0214403
smoothSolver:  Solving for omega, Initial residual = 7.77124e-08, Final residual = 7.75837e-09, No Iterations 4
smoothSolver:  Solving for k, Initial residual = 2.54771e-07, Final residual = 1.69292e-08, No Iterations 6
ExecutionTime = 6.17 s  ClockTime = 6 s

scalarTransport execute: age
smoothSolver:  Solving for age, Initial residual = 0.000339023, Final residual = 3.12037e-05, No Iterations 15

Time = 487

smoothSolver:  Solving for Ux, Initial residual = 6.1053e-07, Final residual = 5.4458e-08, No Iterations 5
smoothSolver:  Solving for Uy, Initial residual = 4.53555e-07, Final residual = 4.00191e-08, No Iterations 5
GAMG:  Solving for p, Initial residual = 1.82244e-06, Final residual = 9.47448e-08, No Iterations 2
time step continuity errors : sum local = 2.05391e-07, global = 4.5414e-09, cumulative = 0.0214403
smoothSolver:  Solving for omega, Initial residual = 7.45683e-08, Final residual = 7.45856e-09, No Iterations 4
smoothSolver:  Solving for k, Initial residual = 2.49962e-07, Final residual = 1.66937e-08, No Iterations 6
ExecutionTime = 6.18 s  ClockTime = 6 s

scalarTransport execute: age
smoothSolver:  Solving for age, Initial residual = 0.000338195, Final residual = 3.11283e-05, No Iterations 15

Time = 488

smoothSolver:  Solving for Ux, Initial residual = 5.80153e-07, Final residual = 5.16338e-08, No Iterations 5
smoothSolver:  Solving for Uy, Initial residual = 4.33364e-07, Final residual = 3.82004e-08, No Iterations 5
GAMG:  Solving for p, Initial residual = 1.74374e-06, Final residual = 9.06676e-08, No Iterations 2
time step continuity errors : sum local = 1.96552e-07, global = 4.58671e-09, cumulative = 0.0214403
smoothSolver:  Solving for omega, Initial residual = 7.15844e-08, Final residual = 7.16583e-09, No Iterations 4
smoothSolver:  Solving for k, Initial residual = 2.45399e-07, Final residual = 1.64656e-08, No Iterations 6
ExecutionTime = 6.2 s  ClockTime = 6 s

scalarTransport execute: age
smoothSolver:  Solving for age, Initial residual = 0.000337371, Final residual = 3.10532e-05, No Iterations 15

Time = 489

smoothSolver:  Solving for Ux, Initial residual = 5.50521e-07, Final residual = 4.88907e-08, No Iterations 5
smoothSolver:  Solving for Uy, Initial residual = 4.14056e-07, Final residual = 3.64653e-08, No Iterations 5
GAMG:  Solving for p, Initial residual = 1.66774e-06, Final residual = 8.66618e-08, No Iterations 2
time step continuity errors : sum local = 1.87868e-07, global = 4.58861e-09, cumulative = 0.0214403
smoothSolver:  Solving for omega, Initial residual = 6.8695e-08, Final residual = 6.88037e-09, No Iterations 4
smoothSolver:  Solving for k, Initial residual = 2.41052e-07, Final residual = 1.62449e-08, No Iterations 6
ExecutionTime = 6.21 s  ClockTime = 6 s

scalarTransport execute: age
smoothSolver:  Solving for age, Initial residual = 0.000336551, Final residual = 3.09785e-05, No Iterations 15

Time = 490

smoothSolver:  Solving for Ux, Initial residual = 5.21841e-07, Final residual = 4.62314e-08, No Iterations 5
smoothSolver:  Solving for Uy, Initial residual = 3.95463e-07, Final residual = 3.47978e-08, No Iterations 5
GAMG:  Solving for p, Initial residual = 1.59507e-06, Final residual = 8.28716e-08, No Iterations 2
time step continuity errors : sum local = 1.79652e-07, global = 4.58106e-09, cumulative = 0.0214403
smoothSolver:  Solving for omega, Initial residual = 6.58278e-08, Final residual = 6.60253e-09, No Iterations 4
smoothSolver:  Solving for k, Initial residual = 2.36905e-07, Final residual = 1.60308e-08, No Iterations 6
ExecutionTime = 6.22 s  ClockTime = 6 s

scalarTransport execute: age
smoothSolver:  Solving for age, Initial residual = 0.000335736, Final residual = 3.09041e-05, No Iterations 15

Time = 491

smoothSolver:  Solving for Ux, Initial residual = 4.93988e-07, Final residual = 4.36561e-08, No Iterations 5
smoothSolver:  Solving for Uy, Initial residual = 3.77334e-07, Final residual = 3.31762e-08, No Iterations 5
GAMG:  Solving for p, Initial residual = 1.52511e-06, Final residual = 7.92775e-08, No Iterations 2
time step continuity errors : sum local = 1.7186e-07, global = 4.53543e-09, cumulative = 0.0214403
smoothSolver:  Solving for omega, Initial residual = 6.3066e-08, Final residual = 6.3325e-09, No Iterations 4
smoothSolver:  Solving for k, Initial residual = 2.32937e-07, Final residual = 1.58212e-08, No Iterations 6
ExecutionTime = 6.23 s  ClockTime = 6 s

scalarTransport execute: age
smoothSolver:  Solving for age, Initial residual = 0.000334926, Final residual = 3.08301e-05, No Iterations 15

Time = 492

smoothSolver:  Solving for Ux, Initial residual = 4.67048e-07, Final residual = 4.11644e-08, No Iterations 5
smoothSolver:  Solving for Uy, Initial residual = 3.59632e-07, Final residual = 3.1593e-08, No Iterations 5
GAMG:  Solving for p, Initial residual = 1.45745e-06, Final residual = 7.4995e-08, No Iterations 2
time step continuity errors : sum local = 1.62577e-07, global = 2.98966e-09, cumulative = 0.0214403
smoothSolver:  Solving for omega, Initial residual = 6.07318e-08, Final residual = 6.07394e-09, No Iterations 4
smoothSolver:  Solving for k, Initial residual = 2.29226e-07, Final residual = 1.56178e-08, No Iterations 6
ExecutionTime = 6.25 s  ClockTime = 6 s

scalarTransport execute: age
smoothSolver:  Solving for age, Initial residual = 0.00033412, Final residual = 3.0756e-05, No Iterations 15

Time = 493

smoothSolver:  Solving for Ux, Initial residual = 4.40394e-07, Final residual = 3.86797e-08, No Iterations 5
smoothSolver:  Solving for Uy, Initial residual = 3.41587e-07, Final residual = 2.99723e-08, No Iterations 5
GAMG:  Solving for p, Initial residual = 1.3915e-06, Final residual = 7.22131e-08, No Iterations 2
time step continuity errors : sum local = 1.56546e-07, global = 2.82e-09, cumulative = 0.0214403
smoothSolver:  Solving for omega, Initial residual = 5.75743e-08, Final residual = 9.78867e-09, No Iterations 3
smoothSolver:  Solving for k, Initial residual = 2.25606e-07, Final residual = 1.5422e-08, No Iterations 6
ExecutionTime = 6.26 s  ClockTime = 6 s

scalarTransport execute: age
smoothSolver:  Solving for age, Initial residual = 0.00033332, Final residual = 3.06825e-05, No Iterations 15

Time = 494

smoothSolver:  Solving for Ux, Initial residual = 4.14645e-07, Final residual = 3.63152e-08, No Iterations 5
smoothSolver:  Solving for Uy, Initial residual = 3.25806e-07, Final residual = 2.86145e-08, No Iterations 5
GAMG:  Solving for p, Initial residual = 1.33135e-06, Final residual = 6.95031e-08, No Iterations 2
time step continuity errors : sum local = 1.50671e-07, global = 2.37885e-09, cumulative = 0.0214403
smoothSolver:  Solving for omega, Initial residual = 5.63374e-08, Final residual = 9.57737e-09, No Iterations 3
smoothSolver:  Solving for k, Initial residual = 2.22243e-07, Final residual = 1.52325e-08, No Iterations 6
ExecutionTime = 6.27 s  ClockTime = 6 s

scalarTransport execute: age
smoothSolver:  Solving for age, Initial residual = 0.000332524, Final residual = 3.06095e-05, No Iterations 15

Time = 495

smoothSolver:  Solving for Ux, Initial residual = 3.90144e-07, Final residual = 3.40603e-08, No Iterations 5
smoothSolver:  Solving for Uy, Initial residual = 3.0945e-07, Final residual = 2.71524e-08, No Iterations 5
GAMG:  Solving for p, Initial residual = 1.27056e-06, Final residual = 6.64495e-08, No Iterations 2
time step continuity errors : sum local = 1.44052e-07, global = 1.91044e-09, cumulative = 0.0214403
smoothSolver:  Solving for omega, Initial residual = 5.46149e-08, Final residual = 9.32459e-09, No Iterations 3
smoothSolver:  Solving for k, Initial residual = 2.18885e-07, Final residual = 1.50431e-08, No Iterations 6
ExecutionTime = 6.28 s  ClockTime = 6 s

scalarTransport execute: age
smoothSolver:  Solving for age, Initial residual = 0.000331732, Final residual = 3.05368e-05, No Iterations 15

Time = 496

smoothSolver:  Solving for Ux, Initial residual = 3.66702e-07, Final residual = 3.18963e-08, No Iterations 5
smoothSolver:  Solving for Uy, Initial residual = 2.93397e-07, Final residual = 2.57085e-08, No Iterations 5
GAMG:  Solving for p, Initial residual = 1.21001e-06, Final residual = 6.32784e-08, No Iterations 2
time step continuity errors : sum local = 1.37177e-07, global = 1.46812e-09, cumulative = 0.0214403
smoothSolver:  Solving for omega, Initial residual = 5.27599e-08, Final residual = 9.04305e-09, No Iterations 3
smoothSolver:  Solving for k, Initial residual = 2.15606e-07, Final residual = 1.48543e-08, No Iterations 6
ExecutionTime = 6.3 s  ClockTime = 6 s

scalarTransport execute: age
smoothSolver:  Solving for age, Initial residual = 0.000330945, Final residual = 3.04645e-05, No Iterations 15

Time = 497

smoothSolver:  Solving for Ux, Initial residual = 3.44096e-07, Final residual = 2.98223e-08, No Iterations 5
smoothSolver:  Solving for Uy, Initial residual = 2.7803e-07, Final residual = 2.4329e-08, No Iterations 5
GAMG:  Solving for p, Initial residual = 1.15209e-06, Final residual = 6.02234e-08, No Iterations 2
time step continuity errors : sum local = 1.30554e-07, global = 9.98745e-10, cumulative = 0.0214403
smoothSolver:  Solving for omega, Initial residual = 5.0894e-08, Final residual = 8.74444e-09, No Iterations 3
smoothSolver:  Solving for k, Initial residual = 2.12419e-07, Final residual = 1.46666e-08, No Iterations 6
ExecutionTime = 6.31 s  ClockTime = 6 s

scalarTransport execute: age
smoothSolver:  Solving for age, Initial residual = 0.000330163, Final residual = 3.03925e-05, No Iterations 15

Time = 498

smoothSolver:  Solving for Ux, Initial residual = 3.22598e-07, Final residual = 2.78556e-08, No Iterations 5
smoothSolver:  Solving for Uy, Initial residual = 2.63297e-07, Final residual = 2.30096e-08, No Iterations 5
GAMG:  Solving for p, Initial residual = 1.09763e-06, Final residual = 5.73633e-08, No Iterations 2
time step continuity errors : sum local = 1.24354e-07, global = 5.44672e-10, cumulative = 0.0214403
smoothSolver:  Solving for omega, Initial residual = 4.89347e-08, Final residual = 8.43461e-09, No Iterations 3
smoothSolver:  Solving for k, Initial residual = 2.09366e-07, Final residual = 1.44801e-08, No Iterations 6
ExecutionTime = 6.32 s  ClockTime = 6 s

scalarTransport execute: age
smoothSolver:  Solving for age, Initial residual = 0.000329385, Final residual = 3.0321e-05, No Iterations 15

Time = 499

smoothSolver:  Solving for Ux, Initial residual = 3.0227e-07, Final residual = 2.60107e-08, No Iterations 5
smoothSolver:  Solving for Uy, Initial residual = 2.49022e-07, Final residual = 2.17395e-08, No Iterations 5
GAMG:  Solving for p, Initial residual = 1.04553e-06, Final residual = 5.46744e-08, No Iterations 2
time step continuity errors : sum local = 1.18525e-07, global = 8.61812e-11, cumulative = 0.0214403
smoothSolver:  Solving for omega, Initial residual = 4.69999e-08, Final residual = 8.11898e-09, No Iterations 3
smoothSolver:  Solving for k, Initial residual = 2.06461e-07, Final residual = 1.4295e-08, No Iterations 6
ExecutionTime = 6.33 s  ClockTime = 6 s

scalarTransport execute: age
smoothSolver:  Solving for age, Initial residual = 0.000328612, Final residual = 3.02498e-05, No Iterations 15

Time = 500

smoothSolver:  Solving for Ux, Initial residual = 2.83158e-07, Final residual = 2.4275e-08, No Iterations 5
smoothSolver:  Solving for Uy, Initial residual = 2.35256e-07, Final residual = 2.05129e-08, No Iterations 5
GAMG:  Solving for p, Initial residual = 9.95728e-07, Final residual = 5.21136e-08, No Iterations 2
time step continuity errors : sum local = 1.12974e-07, global = -3.72981e-10, cumulative = 0.0214403
smoothSolver:  Solving for omega, Initial residual = 4.50781e-08, Final residual = 7.80145e-09, No Iterations 3
smoothSolver:  Solving for k, Initial residual = 2.03663e-07, Final residual = 1.4111e-08, No Iterations 6
ExecutionTime = 6.35 s  ClockTime = 6 s


SIMPLE solution converged in 500 iterations

scalarTransport execute: age
smoothSolver:  Solving for age, Initial residual = 0.000327843, Final residual = 3.0179e-05, No Iterations 15

End

