/*---------------------------------------------------------------------------*\
| =========                 |                                                 |
| \\      /  F ield         | OpenFOAM: The Open Source CFD Toolbox           |
|  \\    /   O peration     | Version:  v2012                                 |
|   \\  /    A nd           | Website:  www.openfoam.com                      |
|    \\/     M anipulation  |                                                 |
\*---------------------------------------------------------------------------*/
Build  : _7bdb509494-20201222 OPENFOAM=2012
Arch   : "LSB;label=32;scalar=64"
Exec   : foamToVTK
Date   : Feb 23 2023
Time   : 20:03:28
Host   : johnsDesktop
PID    : 12729
I/O    : uncollated
Case   : /home/john/of_runs/cases/dbl_0_35_7-00300_9
nProcs : 1
trapFpe: Floating point exception trapping enabled (FOAM_SIGFPE).
fileModificationChecking : Monitoring run-time modified files using timeStampMaster (fileModificationSkew 5, maxFileModificationPolls 20)
allowSystemOperations : Allowing user-supplied system call operations

// * * * * * * * * * * * * * * * * * * * * * * * * * * * * * * * * * * * * * //
Create time

Initial memory 205800 kB
Create mesh for time = 0

VTK mesh topology: 0.03 s, 209216 kB
Time: 0
    volScalar    : age k nuTilda nut omega p
    volVector    : U
    Internal  : "VTK/dbl_0_35_7-00300_9_0/internal.vtu"
    Boundary  : "VTK/dbl_0_35_7-00300_9_0/boundary/inlet.vtp"
    Boundary  : "VTK/dbl_0_35_7-00300_9_0/boundary/outlet.vtp"
    Boundary  : "VTK/dbl_0_35_7-00300_9_0/boundary/walls.vtp"
    Boundary  : "VTK/dbl_0_35_7-00300_9_0/boundary/baffle.vtp"
Wrote in 0.02 s, 213560 kB
Time: 500
    volScalar    : age k nut omega p
    volVector    : U
    Internal  : "VTK/dbl_0_35_7-00300_9_500/internal.vtu"
    Boundary  : "VTK/dbl_0_35_7-00300_9_500/boundary/inlet.vtp"
    Boundary  : "VTK/dbl_0_35_7-00300_9_500/boundary/outlet.vtp"
    Boundary  : "VTK/dbl_0_35_7-00300_9_500/boundary/walls.vtp"
    Boundary  : "VTK/dbl_0_35_7-00300_9_500/boundary/baffle.vtp"
Wrote in 0.06 s, 213160 kB

End: 0.11 s, 215604 kB (peak)

