/*---------------------------------------------------------------------------*\
| =========                 |                                                 |
| \\      /  F ield         | OpenFOAM: The Open Source CFD Toolbox           |
|  \\    /   O peration     | Version:  v2012                                 |
|   \\  /    A nd           | Website:  www.openfoam.com                      |
|    \\/     M anipulation  |                                                 |
\*---------------------------------------------------------------------------*/
Build  : _7bdb509494-20201222 OPENFOAM=2012
Arch   : "LSB;label=32;scalar=64"
Exec   : simpleFoam
Date   : Feb 24 2023
Time   : 01:59:11
Host   : johnsDesktop
PID    : 21668
I/O    : uncollated
Case   : /home/john/of_runs/cases/dbl_0_58_10_0
nProcs : 1
trapFpe: Floating point exception trapping enabled (FOAM_SIGFPE).
fileModificationChecking : Monitoring run-time modified files using timeStampMaster (fileModificationSkew 5, maxFileModificationPolls 20)
allowSystemOperations : Allowing user-supplied system call operations

// * * * * * * * * * * * * * * * * * * * * * * * * * * * * * * * * * * * * * //
Create time

Create mesh for time = 0


SIMPLE: convergence criteria
    field p	 tolerance 1e-06
    field U	 tolerance 1e-06
    field "(k|epsilon|omega|f|v2|age)"	 tolerance 1e-05

Reading field p

Reading field U

Reading/calculating face flux field phi

Selecting incompressible transport model Newtonian
Selecting turbulence model type RAS
Selecting RAS turbulence model kOmegaSST
Selecting patchDistMethod meshWave
RAS
{
    RASModel        kOmegaSST;
    turbulence      on;
    printCoeffs     on;
    alphaK1         0.85;
    alphaK2         1;
    alphaOmega1     0.5;
    alphaOmega2     0.856;
    gamma1          0.555556;
    gamma2          0.44;
    beta1           0.075;
    beta2           0.0828;
    betaStar        0.09;
    a1              0.31;
    b1              1;
    c1              10;
    F3              false;
    decayControl    false;
    kInf            0;
    omegaInf        0;
}

No MRF models present

No finite volume options present

Starting time loop

Selecting finite volume options type scalarSemiImplicitSource
    Source: unitySource
    - selecting all cells
    - selected 6502 cell(s) with volume 0.03142
Time = 1

smoothSolver:  Solving for Ux, Initial residual = 0, Final residual = 0, No Iterations 0
smoothSolver:  Solving for Uy, Initial residual = 1, Final residual = 0.0524227, No Iterations 2
GAMG:  Solving for p, Initial residual = 1, Final residual = 0.0571555, No Iterations 7
time step continuity errors : sum local = 0.00363816, global = -0.000390662, cumulative = -0.000390662
smoothSolver:  Solving for omega, Initial residual = 0.018599, Final residual = 0.00157833, No Iterations 3
smoothSolver:  Solving for k, Initial residual = 1, Final residual = 0.0404335, No Iterations 1
ExecutionTime = 0.05 s  ClockTime = 0 s

scalarTransport execute: age
smoothSolver:  Solving for age, Initial residual = 1, Final residual = 0.0990739, No Iterations 6

Time = 2

smoothSolver:  Solving for Ux, Initial residual = 0.244474, Final residual = 0.0242342, No Iterations 5
smoothSolver:  Solving for Uy, Initial residual = 0.34689, Final residual = 0.0233622, No Iterations 5
GAMG:  Solving for p, Initial residual = 0.0214113, Final residual = 0.00163948, No Iterations 4
time step continuity errors : sum local = 0.0190969, global = 0.00199631, cumulative = 0.00160564
smoothSolver:  Solving for omega, Initial residual = 0.105726, Final residual = 0.0028615, No Iterations 1
smoothSolver:  Solving for k, Initial residual = 0.122158, Final residual = 0.00911363, No Iterations 2
ExecutionTime = 0.06 s  ClockTime = 0 s

scalarTransport execute: age
smoothSolver:  Solving for age, Initial residual = 0.45631, Final residual = 0.0433481, No Iterations 7

Time = 3

smoothSolver:  Solving for Ux, Initial residual = 0.139887, Final residual = 0.0102199, No Iterations 5
smoothSolver:  Solving for Uy, Initial residual = 0.129901, Final residual = 0.010842, No Iterations 4
GAMG:  Solving for p, Initial residual = 0.0174777, Final residual = 0.00169449, No Iterations 3
time step continuity errors : sum local = 0.00867576, global = 0.000818369, cumulative = 0.00242401
smoothSolver:  Solving for omega, Initial residual = 0.00829849, Final residual = 0.000613094, No Iterations 1
smoothSolver:  Solving for k, Initial residual = 0.0541913, Final residual = 0.00390278, No Iterations 3
ExecutionTime = 0.08 s  ClockTime = 0 s

scalarTransport execute: age
smoothSolver:  Solving for age, Initial residual = 0.241622, Final residual = 0.0226991, No Iterations 8

Time = 4

smoothSolver:  Solving for Ux, Initial residual = 0.0474584, Final residual = 0.00410037, No Iterations 4
smoothSolver:  Solving for Uy, Initial residual = 0.0635116, Final residual = 0.00407182, No Iterations 4
GAMG:  Solving for p, Initial residual = 0.0157649, Final residual = 0.0010685, No Iterations 3
time step continuity errors : sum local = 0.00343351, global = 0.000303529, cumulative = 0.00272754
smoothSolver:  Solving for omega, Initial residual = 0.00477307, Final residual = 0.000321728, No Iterations 1
smoothSolver:  Solving for k, Initial residual = 0.0316503, Final residual = 0.00217435, No Iterations 4
ExecutionTime = 0.09 s  ClockTime = 0 s

scalarTransport execute: age
smoothSolver:  Solving for age, Initial residual = 0.108991, Final residual = 0.00990555, No Iterations 9

Time = 5

smoothSolver:  Solving for Ux, Initial residual = 0.0263069, Final residual = 0.00192998, No Iterations 2
smoothSolver:  Solving for Uy, Initial residual = 0.0626871, Final residual = 0.00561198, No Iterations 2
GAMG:  Solving for p, Initial residual = 0.0111313, Final residual = 0.000839282, No Iterations 2
time step continuity errors : sum local = 0.00229384, global = 0.000386103, cumulative = 0.00311364
smoothSolver:  Solving for omega, Initial residual = 0.00172759, Final residual = 0.000118607, No Iterations 1
smoothSolver:  Solving for k, Initial residual = 0.0228784, Final residual = 0.00206191, No Iterations 4
ExecutionTime = 0.1 s  ClockTime = 0 s

scalarTransport execute: age
smoothSolver:  Solving for age, Initial residual = 0.0703938, Final residual = 0.00700198, No Iterations 9

Time = 6

smoothSolver:  Solving for Ux, Initial residual = 0.0247431, Final residual = 0.0015767, No Iterations 4
smoothSolver:  Solving for Uy, Initial residual = 0.0175702, Final residual = 0.00114492, No Iterations 5
GAMG:  Solving for p, Initial residual = 0.00959219, Final residual = 0.000883062, No Iterations 2
time step continuity errors : sum local = 0.00236211, global = 0.000346554, cumulative = 0.0034602
smoothSolver:  Solving for omega, Initial residual = 0.000845045, Final residual = 6.40799e-05, No Iterations 1
smoothSolver:  Solving for k, Initial residual = 0.018697, Final residual = 0.00121525, No Iterations 5
ExecutionTime = 0.11 s  ClockTime = 0 s

scalarTransport execute: age
smoothSolver:  Solving for age, Initial residual = 0.0514638, Final residual = 0.00468426, No Iterations 10

Time = 7

smoothSolver:  Solving for Ux, Initial residual = 0.0158684, Final residual = 0.00119418, No Iterations 5
smoothSolver:  Solving for Uy, Initial residual = 0.0119956, Final residual = 0.00087617, No Iterations 5
GAMG:  Solving for p, Initial residual = 0.00764991, Final residual = 0.000664569, No Iterations 2
time step continuity errors : sum local = 0.00172963, global = 0.000148878, cumulative = 0.00360908
smoothSolver:  Solving for omega, Initial residual = 0.000388331, Final residual = 2.81018e-05, No Iterations 1
smoothSolver:  Solving for k, Initial residual = 0.0164221, Final residual = 0.00118505, No Iterations 5
ExecutionTime = 0.12 s  ClockTime = 0 s

scalarTransport execute: age
smoothSolver:  Solving for age, Initial residual = 0.0397627, Final residual = 0.00380211, No Iterations 10

Time = 8

smoothSolver:  Solving for Ux, Initial residual = 0.0126184, Final residual = 0.00103713, No Iterations 5
smoothSolver:  Solving for Uy, Initial residual = 0.0101454, Final residual = 0.000773968, No Iterations 5
GAMG:  Solving for p, Initial residual = 0.00600974, Final residual = 0.000309878, No Iterations 2
time step continuity errors : sum local = 0.00079004, global = 4.22579e-05, cumulative = 0.00365133
smoothSolver:  Solving for omega, Initial residual = 0.000180752, Final residual = 1.74153e-05, No Iterations 1
smoothSolver:  Solving for k, Initial residual = 0.0150179, Final residual = 0.00116224, No Iterations 5
ExecutionTime = 0.13 s  ClockTime = 0 s

scalarTransport execute: age
smoothSolver:  Solving for age, Initial residual = 0.0313043, Final residual = 0.0026671, No Iterations 11

Time = 9

smoothSolver:  Solving for Ux, Initial residual = 0.0107594, Final residual = 0.000898883, No Iterations 5
smoothSolver:  Solving for Uy, Initial residual = 0.0101604, Final residual = 0.00070403, No Iterations 5
GAMG:  Solving for p, Initial residual = 0.00505457, Final residual = 0.000283633, No Iterations 2
time step continuity errors : sum local = 0.000722235, global = 1.10152e-05, cumulative = 0.00366235
smoothSolver:  Solving for omega, Initial residual = 9.04745e-05, Final residual = 3.39699e-06, No Iterations 2
smoothSolver:  Solving for k, Initial residual = 0.0140241, Final residual = 0.0011383, No Iterations 5
ExecutionTime = 0.14 s  ClockTime = 0 s

scalarTransport execute: age
smoothSolver:  Solving for age, Initial residual = 0.0256234, Final residual = 0.00226901, No Iterations 11

Time = 10

smoothSolver:  Solving for Ux, Initial residual = 0.0101744, Final residual = 0.000824115, No Iterations 5
smoothSolver:  Solving for Uy, Initial residual = 0.00758198, Final residual = 0.000635399, No Iterations 5
GAMG:  Solving for p, Initial residual = 0.00430155, Final residual = 0.000247439, No Iterations 2
time step continuity errors : sum local = 0.000629231, global = 9.6978e-07, cumulative = 0.00366332
smoothSolver:  Solving for omega, Initial residual = 4.85858e-05, Final residual = 2.62683e-06, No Iterations 2
smoothSolver:  Solving for k, Initial residual = 0.0132791, Final residual = 0.00111626, No Iterations 5
ExecutionTime = 0.16 s  ClockTime = 0 s

scalarTransport execute: age
smoothSolver:  Solving for age, Initial residual = 0.0217995, Final residual = 0.00197656, No Iterations 11

Time = 11

smoothSolver:  Solving for Ux, Initial residual = 0.0273484, Final residual = 0.000822074, No Iterations 1
smoothSolver:  Solving for Uy, Initial residual = 0.0563654, Final residual = 0.00339112, No Iterations 1
GAMG:  Solving for p, Initial residual = 0.00297031, Final residual = 0.000144279, No Iterations 2
time step continuity errors : sum local = 0.000366568, global = 5.33066e-06, cumulative = 0.00366865
smoothSolver:  Solving for omega, Initial residual = 3.0036e-05, Final residual = 1.64781e-06, No Iterations 2
smoothSolver:  Solving for k, Initial residual = 0.0127112, Final residual = 0.00109528, No Iterations 5
ExecutionTime = 0.17 s  ClockTime = 0 s

scalarTransport execute: age
smoothSolver:  Solving for age, Initial residual = 0.0186655, Final residual = 0.00171453, No Iterations 11

Time = 12

smoothSolver:  Solving for Ux, Initial residual = 0.0279009, Final residual = 0.001456, No Iterations 1
smoothSolver:  Solving for Uy, Initial residual = 0.0106341, Final residual = 0.000870301, No Iterations 4
GAMG:  Solving for p, Initial residual = 0.0040317, Final residual = 0.000279284, No Iterations 2
time step continuity errors : sum local = 0.000709211, global = 9.62496e-06, cumulative = 0.00367828
smoothSolver:  Solving for omega, Initial residual = 2.83805e-05, Final residual = 1.55954e-06, No Iterations 2
smoothSolver:  Solving for k, Initial residual = 0.0122457, Final residual = 0.00107591, No Iterations 5
ExecutionTime = 0.18 s  ClockTime = 0 s

scalarTransport execute: age
smoothSolver:  Solving for age, Initial residual = 0.0164431, Final residual = 0.00153858, No Iterations 11

Time = 13

smoothSolver:  Solving for Ux, Initial residual = 0.00883748, Final residual = 0.00074355, No Iterations 5
smoothSolver:  Solving for Uy, Initial residual = 0.00533033, Final residual = 0.000467785, No Iterations 5
GAMG:  Solving for p, Initial residual = 0.00346298, Final residual = 0.000249717, No Iterations 2
time step continuity errors : sum local = 0.00063394, global = 1.88289e-05, cumulative = 0.0036971
smoothSolver:  Solving for omega, Initial residual = 2.76316e-05, Final residual = 1.2977e-06, No Iterations 2
smoothSolver:  Solving for k, Initial residual = 0.0118326, Final residual = 0.00105673, No Iterations 5
ExecutionTime = 0.19 s  ClockTime = 0 s

scalarTransport execute: age
smoothSolver:  Solving for age, Initial residual = 0.0141056, Final residual = 0.00135867, No Iterations 11

Time = 14

smoothSolver:  Solving for Ux, Initial residual = 0.00705013, Final residual = 0.000667085, No Iterations 5
smoothSolver:  Solving for Uy, Initial residual = 0.00513642, Final residual = 0.000459841, No Iterations 5
GAMG:  Solving for p, Initial residual = 0.00289647, Final residual = 0.000193297, No Iterations 2
time step continuity errors : sum local = 0.000490382, global = 2.72991e-05, cumulative = 0.0037244
smoothSolver:  Solving for omega, Initial residual = 2.05527e-05, Final residual = 1.1001e-06, No Iterations 2
smoothSolver:  Solving for k, Initial residual = 0.0114624, Final residual = 0.00103785, No Iterations 5
ExecutionTime = 0.2 s  ClockTime = 0 s

scalarTransport execute: age
smoothSolver:  Solving for age, Initial residual = 0.0125473, Final residual = 0.00123747, No Iterations 11

Time = 15

smoothSolver:  Solving for Ux, Initial residual = 0.0394444, Final residual = 4.12254e-05, No Iterations 1
smoothSolver:  Solving for Uy, Initial residual = 0.0192446, Final residual = 0.00161323, No Iterations 2
GAMG:  Solving for p, Initial residual = 0.00227855, Final residual = 0.000112482, No Iterations 2
time step continuity errors : sum local = 0.000284955, global = 3.11205e-05, cumulative = 0.00375552
smoothSolver:  Solving for omega, Initial residual = 1.40277e-05, Final residual = 6.55129e-07, No Iterations 2
smoothSolver:  Solving for k, Initial residual = 0.011165, Final residual = 0.00101942, No Iterations 5
ExecutionTime = 0.21 s  ClockTime = 0 s

scalarTransport execute: age
smoothSolver:  Solving for age, Initial residual = 0.0112376, Final residual = 0.000953795, No Iterations 12

Time = 16

smoothSolver:  Solving for Ux, Initial residual = 0.0194118, Final residual = 0.00191854, No Iterations 1
smoothSolver:  Solving for Uy, Initial residual = 0.00872156, Final residual = 0.000625935, No Iterations 4
GAMG:  Solving for p, Initial residual = 0.00244114, Final residual = 0.000163207, No Iterations 2
time step continuity errors : sum local = 0.0004132, global = 4.22074e-05, cumulative = 0.00379773
smoothSolver:  Solving for omega, Initial residual = 2.48721e-05, Final residual = 1.08131e-06, No Iterations 2
smoothSolver:  Solving for k, Initial residual = 0.0108607, Final residual = 0.00100164, No Iterations 5
ExecutionTime = 0.22 s  ClockTime = 0 s

scalarTransport execute: age
smoothSolver:  Solving for age, Initial residual = 0.010048, Final residual = 0.000868289, No Iterations 12

Time = 17

smoothSolver:  Solving for Ux, Initial residual = 0.00561654, Final residual = 0.000341192, No Iterations 1
smoothSolver:  Solving for Uy, Initial residual = 0.288126, Final residual = 0.00134997, No Iterations 1
GAMG:  Solving for p, Initial residual = 0.00190116, Final residual = 0.000103702, No Iterations 2
time step continuity errors : sum local = 0.000262398, global = 3.88332e-05, cumulative = 0.00383656
smoothSolver:  Solving for omega, Initial residual = 3.17592e-05, Final residual = 1.0857e-06, No Iterations 2
smoothSolver:  Solving for k, Initial residual = 0.0106254, Final residual = 0.000984527, No Iterations 5
ExecutionTime = 0.23 s  ClockTime = 0 s

scalarTransport execute: age
smoothSolver:  Solving for age, Initial residual = 0.00907248, Final residual = 0.000798108, No Iterations 12

Time = 18

smoothSolver:  Solving for Ux, Initial residual = 0.00784337, Final residual = 0.00053725, No Iterations 2
smoothSolver:  Solving for Uy, Initial residual = 0.11381, Final residual = 0.00179485, No Iterations 1
GAMG:  Solving for p, Initial residual = 0.00241254, Final residual = 0.000181042, No Iterations 2
time step continuity errors : sum local = 0.000457705, global = 2.92583e-05, cumulative = 0.00386582
smoothSolver:  Solving for omega, Initial residual = 3.96882e-05, Final residual = 3.78572e-06, No Iterations 1
smoothSolver:  Solving for k, Initial residual = 0.0103943, Final residual = 0.000968615, No Iterations 5
ExecutionTime = 0.24 s  ClockTime = 0 s

scalarTransport execute: age
smoothSolver:  Solving for age, Initial residual = 0.00825953, Final residual = 0.000737075, No Iterations 12

Time = 19

smoothSolver:  Solving for Ux, Initial residual = 0.00645457, Final residual = 0.000484619, No Iterations 5
smoothSolver:  Solving for Uy, Initial residual = 0.00415704, Final residual = 0.000379388, No Iterations 5
GAMG:  Solving for p, Initial residual = 0.00185841, Final residual = 0.000129409, No Iterations 2
time step continuity errors : sum local = 0.000327034, global = 2.0851e-05, cumulative = 0.00388667
smoothSolver:  Solving for omega, Initial residual = 4.00892e-05, Final residual = 3.79932e-06, No Iterations 1
smoothSolver:  Solving for k, Initial residual = 0.0101444, Final residual = 0.000952706, No Iterations 5
ExecutionTime = 0.26 s  ClockTime = 0 s

scalarTransport execute: age
smoothSolver:  Solving for age, Initial residual = 0.00763023, Final residual = 0.000706082, No Iterations 12

Time = 20

smoothSolver:  Solving for Ux, Initial residual = 0.00460767, Final residual = 0.000447745, No Iterations 5
smoothSolver:  Solving for Uy, Initial residual = 0.00396541, Final residual = 0.000361592, No Iterations 5
GAMG:  Solving for p, Initial residual = 0.00162058, Final residual = 0.000100647, No Iterations 2
time step continuity errors : sum local = 0.000253974, global = 2.04593e-05, cumulative = 0.00390713
smoothSolver:  Solving for omega, Initial residual = 2.95338e-05, Final residual = 9.46475e-07, No Iterations 2
smoothSolver:  Solving for k, Initial residual = 0.00985418, Final residual = 0.000932151, No Iterations 5
ExecutionTime = 0.27 s  ClockTime = 0 s

scalarTransport execute: age
smoothSolver:  Solving for age, Initial residual = 0.00701756, Final residual = 0.000637701, No Iterations 12

Time = 21

smoothSolver:  Solving for Ux, Initial residual = 0.00414535, Final residual = 0.000272417, No Iterations 6
smoothSolver:  Solving for Uy, Initial residual = 0.00348298, Final residual = 0.000337137, No Iterations 5
GAMG:  Solving for p, Initial residual = 0.00147268, Final residual = 9.41967e-05, No Iterations 2
time step continuity errors : sum local = 0.000237527, global = 2.11394e-05, cumulative = 0.00392827
smoothSolver:  Solving for omega, Initial residual = 3.3673e-05, Final residual = 3.08264e-06, No Iterations 1
smoothSolver:  Solving for k, Initial residual = 0.00953551, Final residual = 0.000908086, No Iterations 5
ExecutionTime = 0.28 s  ClockTime = 0 s

scalarTransport execute: age
smoothSolver:  Solving for age, Initial residual = 0.00639743, Final residual = 0.000567838, No Iterations 12

Time = 22

smoothSolver:  Solving for Ux, Initial residual = 0.00366148, Final residual = 0.000316078, No Iterations 5
smoothSolver:  Solving for Uy, Initial residual = 0.0124693, Final residual = 0.00116378, No Iterations 2
GAMG:  Solving for p, Initial residual = 0.00154864, Final residual = 0.000122662, No Iterations 2
time step continuity errors : sum local = 0.000309068, global = 1.57426e-05, cumulative = 0.00394402
smoothSolver:  Solving for omega, Initial residual = 2.8705e-05, Final residual = 2.86307e-06, No Iterations 1
smoothSolver:  Solving for k, Initial residual = 0.00918387, Final residual = 0.000873054, No Iterations 5
ExecutionTime = 0.29 s  ClockTime = 0 s

scalarTransport execute: age
smoothSolver:  Solving for age, Initial residual = 0.00582436, Final residual = 0.000502463, No Iterations 12

Time = 23

smoothSolver:  Solving for Ux, Initial residual = 0.00978632, Final residual = 0.000658571, No Iterations 3
smoothSolver:  Solving for Uy, Initial residual = 0.00406105, Final residual = 0.000323504, No Iterations 5
GAMG:  Solving for p, Initial residual = 0.00158445, Final residual = 0.000109359, No Iterations 2
time step continuity errors : sum local = 0.000275435, global = 1.95998e-05, cumulative = 0.00396362
smoothSolver:  Solving for omega, Initial residual = 3.28349e-05, Final residual = 3.1801e-06, No Iterations 1
smoothSolver:  Solving for k, Initial residual = 0.00877168, Final residual = 0.000836209, No Iterations 5
ExecutionTime = 0.3 s  ClockTime = 0 s

scalarTransport execute: age
smoothSolver:  Solving for age, Initial residual = 0.00527744, Final residual = 0.000521389, No Iterations 11

Time = 24

smoothSolver:  Solving for Ux, Initial residual = 0.0212005, Final residual = 0.00106068, No Iterations 1
smoothSolver:  Solving for Uy, Initial residual = 0.00741534, Final residual = 0.000664547, No Iterations 3
GAMG:  Solving for p, Initial residual = 0.00159487, Final residual = 0.000137667, No Iterations 2
time step continuity errors : sum local = 0.000346712, global = 2.91818e-05, cumulative = 0.0039928
smoothSolver:  Solving for omega, Initial residual = 3.24005e-05, Final residual = 3.01523e-06, No Iterations 1
smoothSolver:  Solving for k, Initial residual = 0.00834381, Final residual = 0.000798545, No Iterations 5
ExecutionTime = 0.31 s  ClockTime = 0 s

scalarTransport execute: age
smoothSolver:  Solving for age, Initial residual = 0.00485496, Final residual = 0.000418585, No Iterations 12

Time = 25

smoothSolver:  Solving for Ux, Initial residual = 0.00368752, Final residual = 0.000363274, No Iterations 5
smoothSolver:  Solving for Uy, Initial residual = 0.00263818, Final residual = 0.000240127, No Iterations 5
GAMG:  Solving for p, Initial residual = 0.00143688, Final residual = 0.000133808, No Iterations 2
time step continuity errors : sum local = 0.000336944, global = 3.35242e-05, cumulative = 0.00402632
smoothSolver:  Solving for omega, Initial residual = 3.82337e-05, Final residual = 3.32948e-06, No Iterations 1
smoothSolver:  Solving for k, Initial residual = 0.00789166, Final residual = 0.000759908, No Iterations 5
ExecutionTime = 0.33 s  ClockTime = 0 s

scalarTransport execute: age
smoothSolver:  Solving for age, Initial residual = 0.00435033, Final residual = 0.000386768, No Iterations 12

Time = 26

smoothSolver:  Solving for Ux, Initial residual = 0.00600872, Final residual = 0.000460422, No Iterations 4
smoothSolver:  Solving for Uy, Initial residual = 0.002784, Final residual = 0.000232405, No Iterations 5
GAMG:  Solving for p, Initial residual = 0.00111397, Final residual = 8.42696e-05, No Iterations 2
time step continuity errors : sum local = 0.000212096, global = 2.82776e-05, cumulative = 0.0040546
smoothSolver:  Solving for omega, Initial residual = 3.44177e-05, Final residual = 3.03164e-06, No Iterations 1
smoothSolver:  Solving for k, Initial residual = 0.00744272, Final residual = 0.000721533, No Iterations 5
ExecutionTime = 0.34 s  ClockTime = 0 s

scalarTransport execute: age
smoothSolver:  Solving for age, Initial residual = 0.00383468, Final residual = 0.000374261, No Iterations 11

Time = 27

smoothSolver:  Solving for Ux, Initial residual = 0.00299053, Final residual = 0.000296597, No Iterations 5
smoothSolver:  Solving for Uy, Initial residual = 0.00222636, Final residual = 0.000146896, No Iterations 6
GAMG:  Solving for p, Initial residual = 0.000964613, Final residual = 6.81908e-05, No Iterations 2
time step continuity errors : sum local = 0.000171524, global = 2.3251e-05, cumulative = 0.00407785
smoothSolver:  Solving for omega, Initial residual = 3.27228e-05, Final residual = 2.80674e-06, No Iterations 1
smoothSolver:  Solving for k, Initial residual = 0.00703171, Final residual = 0.000683526, No Iterations 5
ExecutionTime = 0.35 s  ClockTime = 0 s

scalarTransport execute: age
smoothSolver:  Solving for age, Initial residual = 0.00349971, Final residual = 0.000327995, No Iterations 11

Time = 28

smoothSolver:  Solving for Ux, Initial residual = 0.00260808, Final residual = 0.000177869, No Iterations 6
smoothSolver:  Solving for Uy, Initial residual = 0.00213454, Final residual = 0.000138965, No Iterations 6
GAMG:  Solving for p, Initial residual = 0.000844408, Final residual = 6.4506e-05, No Iterations 2
time step continuity errors : sum local = 0.000162172, global = 1.77249e-05, cumulative = 0.00409557
smoothSolver:  Solving for omega, Initial residual = 2.76798e-05, Final residual = 2.25533e-06, No Iterations 1
smoothSolver:  Solving for k, Initial residual = 0.00661693, Final residual = 0.000646, No Iterations 5
ExecutionTime = 0.36 s  ClockTime = 0 s

scalarTransport execute: age
smoothSolver:  Solving for age, Initial residual = 0.00314527, Final residual = 0.000282247, No Iterations 11

Time = 29

smoothSolver:  Solving for Ux, Initial residual = 0.0025426, Final residual = 0.000247699, No Iterations 5
smoothSolver:  Solving for Uy, Initial residual = 0.00216221, Final residual = 0.000204486, No Iterations 5
GAMG:  Solving for p, Initial residual = 0.000839393, Final residual = 6.25213e-05, No Iterations 2
time step continuity errors : sum local = 0.000157071, global = 1.36353e-05, cumulative = 0.00410921
smoothSolver:  Solving for omega, Initial residual = 2.00064e-05, Final residual = 1.94829e-06, No Iterations 1
smoothSolver:  Solving for k, Initial residual = 0.006241, Final residual = 0.000609373, No Iterations 5
ExecutionTime = 0.37 s  ClockTime = 0 s

scalarTransport execute: age
smoothSolver:  Solving for age, Initial residual = 0.00297644, Final residual = 0.000258303, No Iterations 11

Time = 30

smoothSolver:  Solving for Ux, Initial residual = 0.00242788, Final residual = 0.00022598, No Iterations 5
smoothSolver:  Solving for Uy, Initial residual = 0.00335874, Final residual = 0.000292958, No Iterations 4
GAMG:  Solving for p, Initial residual = 0.000918649, Final residual = 8.72599e-05, No Iterations 2
time step continuity errors : sum local = 0.000219155, global = 1.1108e-05, cumulative = 0.00412032
smoothSolver:  Solving for omega, Initial residual = 2.40394e-05, Final residual = 2.24153e-06, No Iterations 1
smoothSolver:  Solving for k, Initial residual = 0.00591214, Final residual = 0.000573747, No Iterations 5
ExecutionTime = 0.38 s  ClockTime = 0 s

scalarTransport execute: age
smoothSolver:  Solving for age, Initial residual = 0.00286678, Final residual = 0.000285713, No Iterations 10

Time = 31

smoothSolver:  Solving for Ux, Initial residual = 0.00358271, Final residual = 0.000320918, No Iterations 4
smoothSolver:  Solving for Uy, Initial residual = 0.00207799, Final residual = 0.000184943, No Iterations 5
GAMG:  Solving for p, Initial residual = 0.000916499, Final residual = 8.5367e-05, No Iterations 2
time step continuity errors : sum local = 0.000214382, global = 1.127e-05, cumulative = 0.00413159
smoothSolver:  Solving for omega, Initial residual = 2.029e-05, Final residual = 1.80793e-06, No Iterations 1
smoothSolver:  Solving for k, Initial residual = 0.00553914, Final residual = 0.000539032, No Iterations 5
ExecutionTime = 0.4 s  ClockTime = 0 s

scalarTransport execute: age
smoothSolver:  Solving for age, Initial residual = 0.00270791, Final residual = 0.000263779, No Iterations 10

Time = 32

smoothSolver:  Solving for Ux, Initial residual = 0.00260234, Final residual = 0.000199543, No Iterations 5
smoothSolver:  Solving for Uy, Initial residual = 0.00224262, Final residual = 0.000169644, No Iterations 5
GAMG:  Solving for p, Initial residual = 0.000853204, Final residual = 7.67778e-05, No Iterations 2
time step continuity errors : sum local = 0.00019277, global = 1.14148e-05, cumulative = 0.004143
smoothSolver:  Solving for omega, Initial residual = 2.10472e-05, Final residual = 2.04958e-06, No Iterations 1
smoothSolver:  Solving for k, Initial residual = 0.00519929, Final residual = 0.000505633, No Iterations 5
ExecutionTime = 0.41 s  ClockTime = 0 s

scalarTransport execute: age
smoothSolver:  Solving for age, Initial residual = 0.0025264, Final residual = 0.000250766, No Iterations 10

Time = 33

smoothSolver:  Solving for Ux, Initial residual = 0.00228438, Final residual = 0.000187633, No Iterations 5
smoothSolver:  Solving for Uy, Initial residual = 0.00263184, Final residual = 0.000244768, No Iterations 4
GAMG:  Solving for p, Initial residual = 0.000840458, Final residual = 7.50175e-05, No Iterations 2
time step continuity errors : sum local = 0.000188314, global = 1.1993e-05, cumulative = 0.004155
smoothSolver:  Solving for omega, Initial residual = 2.10051e-05, Final residual = 6.87425e-07, No Iterations 2
smoothSolver:  Solving for k, Initial residual = 0.00486931, Final residual = 0.000472812, No Iterations 5
ExecutionTime = 0.42 s  ClockTime = 0 s

scalarTransport execute: age
smoothSolver:  Solving for age, Initial residual = 0.00244251, Final residual = 0.000241442, No Iterations 10

Time = 34

smoothSolver:  Solving for Ux, Initial residual = 0.00190733, Final residual = 0.000177717, No Iterations 5
smoothSolver:  Solving for Uy, Initial residual = 0.00185017, Final residual = 0.000151953, No Iterations 5
GAMG:  Solving for p, Initial residual = 0.000768062, Final residual = 7.18571e-05, No Iterations 2
time step continuity errors : sum local = 0.00018034, global = 1.29119e-05, cumulative = 0.00416791
smoothSolver:  Solving for omega, Initial residual = 3.0235e-05, Final residual = 2.5132e-06, No Iterations 1
smoothSolver:  Solving for k, Initial residual = 0.00451483, Final residual = 0.000442113, No Iterations 5
ExecutionTime = 0.43 s  ClockTime = 0 s

scalarTransport execute: age
smoothSolver:  Solving for age, Initial residual = 0.00240915, Final residual = 0.000226737, No Iterations 10

Time = 35

smoothSolver:  Solving for Ux, Initial residual = 0.00173282, Final residual = 0.000167716, No Iterations 5
smoothSolver:  Solving for Uy, Initial residual = 0.0014983, Final residual = 0.000142608, No Iterations 5
GAMG:  Solving for p, Initial residual = 0.000645688, Final residual = 5.30966e-05, No Iterations 2
time step continuity errors : sum local = 0.00013322, global = 1.38e-05, cumulative = 0.00418171
smoothSolver:  Solving for omega, Initial residual = 1.9602e-05, Final residual = 1.85829e-06, No Iterations 1
smoothSolver:  Solving for k, Initial residual = 0.00417323, Final residual = 0.000412876, No Iterations 5
ExecutionTime = 0.44 s  ClockTime = 0 s

scalarTransport execute: age
smoothSolver:  Solving for age, Initial residual = 0.00215983, Final residual = 0.000197725, No Iterations 10

Time = 36

smoothSolver:  Solving for Ux, Initial residual = 0.00178375, Final residual = 0.000144428, No Iterations 5
smoothSolver:  Solving for Uy, Initial residual = 0.0049271, Final residual = 0.000483259, No Iterations 2
GAMG:  Solving for p, Initial residual = 0.000751914, Final residual = 7.08718e-05, No Iterations 2
time step continuity errors : sum local = 0.000177758, global = 1.02524e-05, cumulative = 0.00419196
smoothSolver:  Solving for omega, Initial residual = 1.93041e-05, Final residual = 6.277e-07, No Iterations 2
smoothSolver:  Solving for k, Initial residual = 0.00399389, Final residual = 0.0003846, No Iterations 5
ExecutionTime = 0.45 s  ClockTime = 0 s

scalarTransport execute: age
smoothSolver:  Solving for age, Initial residual = 0.0020777, Final residual = 0.000189009, No Iterations 11

Time = 37

smoothSolver:  Solving for Ux, Initial residual = 0.00183156, Final residual = 0.000138427, No Iterations 5
smoothSolver:  Solving for Uy, Initial residual = 0.00165399, Final residual = 0.000138884, No Iterations 5
GAMG:  Solving for p, Initial residual = 0.000700172, Final residual = 6.95166e-05, No Iterations 2
time step continuity errors : sum local = 0.000174326, global = 9.83965e-06, cumulative = 0.0042018
smoothSolver:  Solving for omega, Initial residual = 2.64051e-05, Final residual = 2.5234e-06, No Iterations 1
smoothSolver:  Solving for k, Initial residual = 0.00371971, Final residual = 0.00035823, No Iterations 5
ExecutionTime = 0.47 s  ClockTime = 0 s

scalarTransport execute: age
smoothSolver:  Solving for age, Initial residual = 0.00213604, Final residual = 0.000194821, No Iterations 11

Time = 38

smoothSolver:  Solving for Ux, Initial residual = 0.00156315, Final residual = 0.000134731, No Iterations 5
smoothSolver:  Solving for Uy, Initial residual = 0.00132346, Final residual = 0.000125934, No Iterations 5
GAMG:  Solving for p, Initial residual = 0.000645644, Final residual = 2.55912e-05, No Iterations 3
time step continuity errors : sum local = 6.41637e-05, global = 1.02475e-05, cumulative = 0.00421205
smoothSolver:  Solving for omega, Initial residual = 3.26657e-05, Final residual = 2.87794e-06, No Iterations 1
smoothSolver:  Solving for k, Initial residual = 0.00338293, Final residual = 0.000333236, No Iterations 5
ExecutionTime = 0.48 s  ClockTime = 0 s

scalarTransport execute: age
smoothSolver:  Solving for age, Initial residual = 0.0020269, Final residual = 0.00018802, No Iterations 10

Time = 39

smoothSolver:  Solving for Ux, Initial residual = 0.0015183, Final residual = 0.000127755, No Iterations 5
smoothSolver:  Solving for Uy, Initial residual = 0.00193343, Final residual = 0.000173808, No Iterations 4
GAMG:  Solving for p, Initial residual = 0.000564812, Final residual = 4.65955e-05, No Iterations 2
time step continuity errors : sum local = 0.000116774, global = 8.86029e-06, cumulative = 0.00422091
smoothSolver:  Solving for omega, Initial residual = 2.89077e-05, Final residual = 8.8848e-07, No Iterations 2
smoothSolver:  Solving for k, Initial residual = 0.00317066, Final residual = 0.00030938, No Iterations 5
ExecutionTime = 0.49 s  ClockTime = 0 s

scalarTransport execute: age
smoothSolver:  Solving for age, Initial residual = 0.00177701, Final residual = 0.000153674, No Iterations 11

Time = 40

smoothSolver:  Solving for Ux, Initial residual = 0.00158389, Final residual = 0.000123616, No Iterations 5
smoothSolver:  Solving for Uy, Initial residual = 0.00137038, Final residual = 0.000108576, No Iterations 5
GAMG:  Solving for p, Initial residual = 0.000677861, Final residual = 2.5648e-05, No Iterations 3
time step continuity errors : sum local = 6.4271e-05, global = 6.82964e-06, cumulative = 0.00422774
smoothSolver:  Solving for omega, Initial residual = 2.47662e-05, Final residual = 2.32119e-06, No Iterations 1
smoothSolver:  Solving for k, Initial residual = 0.00295412, Final residual = 0.00028727, No Iterations 5
ExecutionTime = 0.5 s  ClockTime = 0 s

scalarTransport execute: age
smoothSolver:  Solving for age, Initial residual = 0.0018224, Final residual = 0.000178348, No Iterations 10

Time = 41

smoothSolver:  Solving for Ux, Initial residual = 0.00418258, Final residual = 0.000283365, No Iterations 2
smoothSolver:  Solving for Uy, Initial residual = 0.0228184, Final residual = 0.000588041, No Iterations 1
GAMG:  Solving for p, Initial residual = 0.000674334, Final residual = 2.56658e-05, No Iterations 3
time step continuity errors : sum local = 6.43032e-05, global = 5.28756e-06, cumulative = 0.00423302
smoothSolver:  Solving for omega, Initial residual = 2.67024e-05, Final residual = 2.39193e-06, No Iterations 1
smoothSolver:  Solving for k, Initial residual = 0.00295473, Final residual = 0.000266579, No Iterations 5
ExecutionTime = 0.51 s  ClockTime = 0 s

scalarTransport execute: age
smoothSolver:  Solving for age, Initial residual = 0.00186515, Final residual = 0.000174643, No Iterations 10

Time = 42

smoothSolver:  Solving for Ux, Initial residual = 0.00158789, Final residual = 0.000108458, No Iterations 5
smoothSolver:  Solving for Uy, Initial residual = 0.00128815, Final residual = 0.000104527, No Iterations 5
GAMG:  Solving for p, Initial residual = 0.000630185, Final residual = 2.14827e-05, No Iterations 3
time step continuity errors : sum local = 5.38261e-05, global = 5.32102e-06, cumulative = 0.00423835
smoothSolver:  Solving for omega, Initial residual = 2.17704e-05, Final residual = 2.13327e-06, No Iterations 1
smoothSolver:  Solving for k, Initial residual = 0.00268862, Final residual = 0.000247103, No Iterations 5
ExecutionTime = 0.52 s  ClockTime = 0 s

scalarTransport execute: age
smoothSolver:  Solving for age, Initial residual = 0.00191864, Final residual = 0.000176376, No Iterations 10

Time = 43

smoothSolver:  Solving for Ux, Initial residual = 0.00120468, Final residual = 0.000105056, No Iterations 5
smoothSolver:  Solving for Uy, Initial residual = 0.00100162, Final residual = 9.42301e-05, No Iterations 5
GAMG:  Solving for p, Initial residual = 0.000473516, Final residual = 1.59832e-05, No Iterations 3
time step continuity errors : sum local = 4.00381e-05, global = 4.93825e-06, cumulative = 0.00424328
smoothSolver:  Solving for omega, Initial residual = 2.19912e-05, Final residual = 1.84476e-06, No Iterations 1
smoothSolver:  Solving for k, Initial residual = 0.00234429, Final residual = 0.000228811, No Iterations 5
ExecutionTime = 0.54 s  ClockTime = 0 s

scalarTransport execute: age
smoothSolver:  Solving for age, Initial residual = 0.00158106, Final residual = 0.000145461, No Iterations 10

Time = 44

smoothSolver:  Solving for Ux, Initial residual = 0.00106301, Final residual = 0.000101333, No Iterations 5
smoothSolver:  Solving for Uy, Initial residual = 0.000970851, Final residual = 8.85322e-05, No Iterations 5
GAMG:  Solving for p, Initial residual = 0.000475998, Final residual = 1.76204e-05, No Iterations 3
time step continuity errors : sum local = 4.41283e-05, global = 4.918e-06, cumulative = 0.0042482
smoothSolver:  Solving for omega, Initial residual = 1.61979e-05, Final residual = 1.5255e-06, No Iterations 1
smoothSolver:  Solving for k, Initial residual = 0.00214866, Final residual = 0.000211719, No Iterations 5
ExecutionTime = 0.55 s  ClockTime = 0 s

scalarTransport execute: age
smoothSolver:  Solving for age, Initial residual = 0.00152735, Final residual = 0.000140069, No Iterations 10

Time = 45

smoothSolver:  Solving for Ux, Initial residual = 0.000984315, Final residual = 9.4851e-05, No Iterations 5
smoothSolver:  Solving for Uy, Initial residual = 0.00115043, Final residual = 8.26285e-05, No Iterations 5
GAMG:  Solving for p, Initial residual = 0.000417252, Final residual = 1.28044e-05, No Iterations 3
time step continuity errors : sum local = 3.20607e-05, global = 4.28423e-06, cumulative = 0.00425249
smoothSolver:  Solving for omega, Initial residual = 1.59802e-05, Final residual = 1.40855e-06, No Iterations 1
smoothSolver:  Solving for k, Initial residual = 0.00197948, Final residual = 0.000195773, No Iterations 5
ExecutionTime = 0.56 s  ClockTime = 0 s

scalarTransport execute: age
smoothSolver:  Solving for age, Initial residual = 0.00144703, Final residual = 0.000129948, No Iterations 10

Time = 46

smoothSolver:  Solving for Ux, Initial residual = 0.00259876, Final residual = 0.000202948, No Iterations 3
smoothSolver:  Solving for Uy, Initial residual = 0.000981758, Final residual = 7.9782e-05, No Iterations 5
GAMG:  Solving for p, Initial residual = 0.000426585, Final residual = 1.58699e-05, No Iterations 3
time step continuity errors : sum local = 3.97329e-05, global = 4.2866e-06, cumulative = 0.00425677
smoothSolver:  Solving for omega, Initial residual = 1.60255e-05, Final residual = 1.53147e-06, No Iterations 1
smoothSolver:  Solving for k, Initial residual = 0.00187378, Final residual = 0.000180895, No Iterations 5
ExecutionTime = 0.57 s  ClockTime = 0 s

scalarTransport execute: age
smoothSolver:  Solving for age, Initial residual = 0.00137802, Final residual = 0.000121531, No Iterations 10

Time = 47

smoothSolver:  Solving for Ux, Initial residual = 0.00095788, Final residual = 9.04815e-05, No Iterations 5
smoothSolver:  Solving for Uy, Initial residual = 0.000798619, Final residual = 7.13725e-05, No Iterations 5
GAMG:  Solving for p, Initial residual = 0.000374165, Final residual = 1.5372e-05, No Iterations 3
time step continuity errors : sum local = 3.84842e-05, global = 3.9555e-06, cumulative = 0.00426073
smoothSolver:  Solving for omega, Initial residual = 1.78131e-05, Final residual = 1.75263e-06, No Iterations 1
smoothSolver:  Solving for k, Initial residual = 0.00172277, Final residual = 0.000167031, No Iterations 5
ExecutionTime = 0.58 s  ClockTime = 0 s

scalarTransport execute: age
smoothSolver:  Solving for age, Initial residual = 0.00132006, Final residual = 0.000126644, No Iterations 9

Time = 48

smoothSolver:  Solving for Ux, Initial residual = 0.000881991, Final residual = 8.45822e-05, No Iterations 5
smoothSolver:  Solving for Uy, Initial residual = 0.000738665, Final residual = 6.89468e-05, No Iterations 5
GAMG:  Solving for p, Initial residual = 0.000303003, Final residual = 3.01198e-05, No Iterations 2
time step continuity errors : sum local = 7.53947e-05, global = 3.62805e-06, cumulative = 0.00426436
smoothSolver:  Solving for omega, Initial residual = 1.43373e-05, Final residual = 1.37575e-06, No Iterations 1
smoothSolver:  Solving for k, Initial residual = 0.00154812, Final residual = 0.000154124, No Iterations 5
ExecutionTime = 0.6 s  ClockTime = 0 s

scalarTransport execute: age
smoothSolver:  Solving for age, Initial residual = 0.0012218, Final residual = 0.000121934, No Iterations 9

Time = 49

smoothSolver:  Solving for Ux, Initial residual = 0.000784892, Final residual = 5.17381e-05, No Iterations 6
smoothSolver:  Solving for Uy, Initial residual = 0.00103862, Final residual = 0.000101781, No Iterations 4
GAMG:  Solving for p, Initial residual = 0.000368985, Final residual = 1.38031e-05, No Iterations 3
time step continuity errors : sum local = 3.45481e-05, global = 3.20364e-06, cumulative = 0.00426756
smoothSolver:  Solving for omega, Initial residual = 1.33922e-05, Final residual = 5.33426e-07, No Iterations 2
smoothSolver:  Solving for k, Initial residual = 0.001443, Final residual = 0.000142022, No Iterations 5
ExecutionTime = 0.61 s  ClockTime = 0 s

scalarTransport execute: age
smoothSolver:  Solving for age, Initial residual = 0.00114696, Final residual = 0.00010235, No Iterations 10

Time = 50

smoothSolver:  Solving for Ux, Initial residual = 0.00081606, Final residual = 7.22197e-05, No Iterations 5
smoothSolver:  Solving for Uy, Initial residual = 0.000749969, Final residual = 6.72982e-05, No Iterations 5
GAMG:  Solving for p, Initial residual = 0.000375195, Final residual = 3.72243e-05, No Iterations 2
time step continuity errors : sum local = 9.31552e-05, global = 3.32249e-06, cumulative = 0.00427088
smoothSolver:  Solving for omega, Initial residual = 1.24655e-05, Final residual = 4.63819e-07, No Iterations 2
smoothSolver:  Solving for k, Initial residual = 0.00133166, Final residual = 0.000130801, No Iterations 5
ExecutionTime = 0.62 s  ClockTime = 0 s

scalarTransport execute: age
smoothSolver:  Solving for age, Initial residual = 0.00108775, Final residual = 9.74015e-05, No Iterations 10

Time = 51

smoothSolver:  Solving for Ux, Initial residual = 0.0177313, Final residual = 0.000222328, No Iterations 1
smoothSolver:  Solving for Uy, Initial residual = 0.00718972, Final residual = 0.000355879, No Iterations 1
GAMG:  Solving for p, Initial residual = 0.000312087, Final residual = 1.1189e-05, No Iterations 3
time step continuity errors : sum local = 2.80027e-05, global = 3.23535e-06, cumulative = 0.00427412
smoothSolver:  Solving for omega, Initial residual = 1.68712e-05, Final residual = 1.6466e-06, No Iterations 1
smoothSolver:  Solving for k, Initial residual = 0.0012676, Final residual = 0.000120498, No Iterations 5
ExecutionTime = 0.63 s  ClockTime = 0 s

scalarTransport execute: age
smoothSolver:  Solving for age, Initial residual = 0.00106174, Final residual = 9.34775e-05, No Iterations 10

Time = 52

smoothSolver:  Solving for Ux, Initial residual = 0.00172993, Final residual = 0.000154448, No Iterations 3
smoothSolver:  Solving for Uy, Initial residual = 0.00311724, Final residual = 0.000223866, No Iterations 2
GAMG:  Solving for p, Initial residual = 0.000452165, Final residual = 2.25951e-05, No Iterations 3
time step continuity errors : sum local = 5.65449e-05, global = 3.16286e-06, cumulative = 0.00427728
smoothSolver:  Solving for omega, Initial residual = 1.08767e-05, Final residual = 4.45434e-07, No Iterations 2
smoothSolver:  Solving for k, Initial residual = 0.00134677, Final residual = 0.000110888, No Iterations 5
ExecutionTime = 0.64 s  ClockTime = 0 s

scalarTransport execute: age
smoothSolver:  Solving for age, Initial residual = 0.00119417, Final residual = 0.000107719, No Iterations 9

Time = 53

smoothSolver:  Solving for Ux, Initial residual = 0.00308752, Final residual = 6.97848e-05, No Iterations 1
smoothSolver:  Solving for Uy, Initial residual = 0.169686, Final residual = 0.000291603, No Iterations 1
GAMG:  Solving for p, Initial residual = 0.000529253, Final residual = 4.67604e-05, No Iterations 2
time step continuity errors : sum local = 0.00011701, global = 2.82204e-06, cumulative = 0.0042801
smoothSolver:  Solving for omega, Initial residual = 1.02006e-05, Final residual = 3.60673e-07, No Iterations 2
smoothSolver:  Solving for k, Initial residual = 0.00134437, Final residual = 0.000101999, No Iterations 5
ExecutionTime = 0.65 s  ClockTime = 0 s

scalarTransport execute: age
smoothSolver:  Solving for age, Initial residual = 0.00137118, Final residual = 0.000123757, No Iterations 9

Time = 54

smoothSolver:  Solving for Ux, Initial residual = 0.00409412, Final residual = 0.000398794, No Iterations 1
smoothSolver:  Solving for Uy, Initial residual = 0.0017528, Final residual = 0.000137537, No Iterations 3
GAMG:  Solving for p, Initial residual = 0.000677958, Final residual = 2.66224e-05, No Iterations 3
time step continuity errors : sum local = 6.66242e-05, global = 2.70771e-06, cumulative = 0.00428281
smoothSolver:  Solving for omega, Initial residual = 1.70655e-05, Final residual = 1.40611e-06, No Iterations 1
smoothSolver:  Solving for k, Initial residual = 0.00118879, Final residual = 9.38171e-05, No Iterations 5
ExecutionTime = 0.66 s  ClockTime = 0 s

scalarTransport execute: age
smoothSolver:  Solving for age, Initial residual = 0.00141741, Final residual = 0.000123727, No Iterations 10

Time = 55

smoothSolver:  Solving for Ux, Initial residual = 0.0210056, Final residual = 0.000209584, No Iterations 1
smoothSolver:  Solving for Uy, Initial residual = 0.0133686, Final residual = 0.000312807, No Iterations 1
GAMG:  Solving for p, Initial residual = 0.000456374, Final residual = 1.67843e-05, No Iterations 3
time step continuity errors : sum local = 4.20082e-05, global = 2.50294e-06, cumulative = 0.00428531
smoothSolver:  Solving for omega, Initial residual = 1.49464e-05, Final residual = 1.34647e-06, No Iterations 1
smoothSolver:  Solving for k, Initial residual = 0.00108235, Final residual = 8.6242e-05, No Iterations 5
ExecutionTime = 0.68 s  ClockTime = 0 s

scalarTransport execute: age
smoothSolver:  Solving for age, Initial residual = 0.00131263, Final residual = 0.000120216, No Iterations 10

Time = 56

smoothSolver:  Solving for Ux, Initial residual = 0.000910227, Final residual = 6.83634e-05, No Iterations 5
smoothSolver:  Solving for Uy, Initial residual = 0.000721378, Final residual = 4.73974e-05, No Iterations 5
GAMG:  Solving for p, Initial residual = 0.000373295, Final residual = 1.78828e-05, No Iterations 3
time step continuity errors : sum local = 4.47503e-05, global = 2.59502e-06, cumulative = 0.00428791
smoothSolver:  Solving for omega, Initial residual = 8.69646e-06, Final residual = 3.85006e-07, No Iterations 2
smoothSolver:  Solving for k, Initial residual = 0.00090728, Final residual = 7.91944e-05, No Iterations 5
ExecutionTime = 0.69 s  ClockTime = 0 s

scalarTransport execute: age
smoothSolver:  Solving for age, Initial residual = 0.00116812, Final residual = 0.000111171, No Iterations 9

Time = 57

smoothSolver:  Solving for Ux, Initial residual = 0.000754437, Final residual = 6.30089e-05, No Iterations 5
smoothSolver:  Solving for Uy, Initial residual = 0.000653883, Final residual = 4.90593e-05, No Iterations 5
GAMG:  Solving for p, Initial residual = 0.000409523, Final residual = 1.43851e-05, No Iterations 3
time step continuity errors : sum local = 3.59933e-05, global = 2.25807e-06, cumulative = 0.00429017
smoothSolver:  Solving for omega, Initial residual = 7.73158e-06, Final residual = 3.45688e-07, No Iterations 2
smoothSolver:  Solving for k, Initial residual = 0.000802478, Final residual = 7.26896e-05, No Iterations 5
ExecutionTime = 0.7 s  ClockTime = 0 s

scalarTransport execute: age
smoothSolver:  Solving for age, Initial residual = 0.00109981, Final residual = 0.000109355, No Iterations 9

Time = 58

smoothSolver:  Solving for Ux, Initial residual = 0.000729501, Final residual = 5.90236e-05, No Iterations 5
smoothSolver:  Solving for Uy, Initial residual = 0.000620773, Final residual = 5.00876e-05, No Iterations 5
GAMG:  Solving for p, Initial residual = 0.000363349, Final residual = 1.44397e-05, No Iterations 3
time step continuity errors : sum local = 3.61219e-05, global = 2.52197e-06, cumulative = 0.00429269
smoothSolver:  Solving for omega, Initial residual = 9.35418e-06, Final residual = 3.39775e-07, No Iterations 2
smoothSolver:  Solving for k, Initial residual = 0.000711758, Final residual = 6.66956e-05, No Iterations 5
ExecutionTime = 0.71 s  ClockTime = 0 s

scalarTransport execute: age
smoothSolver:  Solving for age, Initial residual = 0.00105313, Final residual = 9.11105e-05, No Iterations 10

Time = 59

smoothSolver:  Solving for Ux, Initial residual = 0.000638445, Final residual = 5.68107e-05, No Iterations 5
smoothSolver:  Solving for Uy, Initial residual = 0.000564534, Final residual = 4.61349e-05, No Iterations 5
GAMG:  Solving for p, Initial residual = 0.000302783, Final residual = 1.10288e-05, No Iterations 3
time step continuity errors : sum local = 2.75889e-05, global = 2.70581e-06, cumulative = 0.00429539
smoothSolver:  Solving for omega, Initial residual = 1.4562e-05, Final residual = 1.29589e-06, No Iterations 1
smoothSolver:  Solving for k, Initial residual = 0.00065391, Final residual = 6.11968e-05, No Iterations 5
ExecutionTime = 0.72 s  ClockTime = 0 s

scalarTransport execute: age
smoothSolver:  Solving for age, Initial residual = 0.000998716, Final residual = 8.69987e-05, No Iterations 10

Time = 60

smoothSolver:  Solving for Ux, Initial residual = 0.00159952, Final residual = 0.000121982, No Iterations 3
smoothSolver:  Solving for Uy, Initial residual = 0.00062314, Final residual = 4.51723e-05, No Iterations 5
GAMG:  Solving for p, Initial residual = 0.000311681, Final residual = 1.43809e-05, No Iterations 3
time step continuity errors : sum local = 3.59711e-05, global = 2.49227e-06, cumulative = 0.00429789
smoothSolver:  Solving for omega, Initial residual = 1.16827e-05, Final residual = 4.31895e-07, No Iterations 2
smoothSolver:  Solving for k, Initial residual = 0.000642132, Final residual = 5.61084e-05, No Iterations 5
ExecutionTime = 0.73 s  ClockTime = 0 s

scalarTransport execute: age
smoothSolver:  Solving for age, Initial residual = 0.00092508, Final residual = 9.03118e-05, No Iterations 10

Time = 61

smoothSolver:  Solving for Ux, Initial residual = 0.00519706, Final residual = 0.000290063, No Iterations 1
smoothSolver:  Solving for Uy, Initial residual = 0.00094679, Final residual = 9.43189e-05, No Iterations 3
GAMG:  Solving for p, Initial residual = 0.000347455, Final residual = 1.43483e-05, No Iterations 3
time step continuity errors : sum local = 3.5892e-05, global = 2.70381e-06, cumulative = 0.00430059
smoothSolver:  Solving for omega, Initial residual = 8.57248e-06, Final residual = 3.28007e-07, No Iterations 2
smoothSolver:  Solving for k, Initial residual = 0.000655101, Final residual = 5.1424e-05, No Iterations 5
ExecutionTime = 0.75 s  ClockTime = 0 s

scalarTransport execute: age
smoothSolver:  Solving for age, Initial residual = 0.000941065, Final residual = 9.13951e-05, No Iterations 10

Time = 62

smoothSolver:  Solving for Ux, Initial residual = 0.00184215, Final residual = 0.000131555, No Iterations 3
smoothSolver:  Solving for Uy, Initial residual = 0.00155737, Final residual = 0.000130122, No Iterations 2
GAMG:  Solving for p, Initial residual = 0.00048865, Final residual = 2.30086e-05, No Iterations 3
time step continuity errors : sum local = 5.75525e-05, global = 2.59858e-06, cumulative = 0.00430319
smoothSolver:  Solving for omega, Initial residual = 8.95529e-06, Final residual = 3.39006e-07, No Iterations 2
smoothSolver:  Solving for k, Initial residual = 0.000759648, Final residual = 7.38191e-05, No Iterations 4
ExecutionTime = 0.76 s  ClockTime = 0 s

scalarTransport execute: age
smoothSolver:  Solving for age, Initial residual = 0.00100946, Final residual = 0.000100127, No Iterations 9

Time = 63

smoothSolver:  Solving for Ux, Initial residual = 0.000744699, Final residual = 5.37123e-05, No Iterations 5
smoothSolver:  Solving for Uy, Initial residual = 0.00069887, Final residual = 5.93003e-05, No Iterations 4
GAMG:  Solving for p, Initial residual = 0.000440861, Final residual = 1.88002e-05, No Iterations 3
time step continuity errors : sum local = 4.70217e-05, global = 2.33152e-06, cumulative = 0.00430552
smoothSolver:  Solving for omega, Initial residual = 1.22681e-05, Final residual = 1.10699e-06, No Iterations 1
smoothSolver:  Solving for k, Initial residual = 0.000649215, Final residual = 4.34158e-05, No Iterations 5
ExecutionTime = 0.77 s  ClockTime = 0 s

scalarTransport execute: age
smoothSolver:  Solving for age, Initial residual = 0.001022, Final residual = 9.50001e-05, No Iterations 9

Time = 64

smoothSolver:  Solving for Ux, Initial residual = 0.000616965, Final residual = 4.78069e-05, No Iterations 5
smoothSolver:  Solving for Uy, Initial residual = 0.000514889, Final residual = 3.90367e-05, No Iterations 5
GAMG:  Solving for p, Initial residual = 0.000311659, Final residual = 1.00247e-05, No Iterations 3
time step continuity errors : sum local = 2.50723e-05, global = 2.30379e-06, cumulative = 0.00430782
smoothSolver:  Solving for omega, Initial residual = 8.89178e-06, Final residual = 3.28856e-07, No Iterations 2
smoothSolver:  Solving for k, Initial residual = 0.000472575, Final residual = 3.97392e-05, No Iterations 5
ExecutionTime = 0.78 s  ClockTime = 0 s

scalarTransport execute: age
smoothSolver:  Solving for age, Initial residual = 0.000935351, Final residual = 8.44047e-05, No Iterations 9

Time = 65

smoothSolver:  Solving for Ux, Initial residual = 0.00129179, Final residual = 0.000108062, No Iterations 3
smoothSolver:  Solving for Uy, Initial residual = 0.00071272, Final residual = 5.72841e-05, No Iterations 4
GAMG:  Solving for p, Initial residual = 0.000355178, Final residual = 1.51603e-05, No Iterations 3
time step continuity errors : sum local = 3.79176e-05, global = 1.98462e-06, cumulative = 0.00430981
smoothSolver:  Solving for omega, Initial residual = 7.50479e-06, Final residual = 3.11416e-07, No Iterations 2
smoothSolver:  Solving for k, Initial residual = 0.000466627, Final residual = 3.63596e-05, No Iterations 5
ExecutionTime = 0.79 s  ClockTime = 0 s

scalarTransport execute: age
smoothSolver:  Solving for age, Initial residual = 0.000942147, Final residual = 8.20394e-05, No Iterations 9

Time = 66

smoothSolver:  Solving for Ux, Initial residual = 0.00123799, Final residual = 0.000106562, No Iterations 2
smoothSolver:  Solving for Uy, Initial residual = 0.0254788, Final residual = 0.000208725, No Iterations 1
GAMG:  Solving for p, Initial residual = 0.000370465, Final residual = 1.48456e-05, No Iterations 3
time step continuity errors : sum local = 3.713e-05, global = 1.73595e-06, cumulative = 0.00431154
smoothSolver:  Solving for omega, Initial residual = 6.30704e-06, Final residual = 2.84692e-07, No Iterations 2
smoothSolver:  Solving for k, Initial residual = 0.000593137, Final residual = 5.21298e-05, No Iterations 4
ExecutionTime = 0.8 s  ClockTime = 0 s

scalarTransport execute: age
smoothSolver:  Solving for age, Initial residual = 0.000928266, Final residual = 9.08251e-05, No Iterations 8

Time = 67

smoothSolver:  Solving for Ux, Initial residual = 0.000643752, Final residual = 4.32657e-05, No Iterations 5
smoothSolver:  Solving for Uy, Initial residual = 0.000586665, Final residual = 5.48269e-05, No Iterations 4
GAMG:  Solving for p, Initial residual = 0.00030639, Final residual = 2.1268e-05, No Iterations 2
time step continuity errors : sum local = 5.31925e-05, global = 1.5855e-06, cumulative = 0.00431313
smoothSolver:  Solving for omega, Initial residual = 1.06936e-05, Final residual = 9.68415e-07, No Iterations 1
smoothSolver:  Solving for k, Initial residual = 0.000495378, Final residual = 4.79695e-05, No Iterations 4
ExecutionTime = 0.82 s  ClockTime = 0 s

scalarTransport execute: age
smoothSolver:  Solving for age, Initial residual = 0.000823401, Final residual = 7.29583e-05, No Iterations 9

Time = 68

smoothSolver:  Solving for Ux, Initial residual = 0.00138457, Final residual = 9.60319e-05, No Iterations 3
smoothSolver:  Solving for Uy, Initial residual = 0.00147196, Final residual = 0.000126588, No Iterations 2
GAMG:  Solving for p, Initial residual = 0.000382302, Final residual = 2.12088e-05, No Iterations 3
time step continuity errors : sum local = 5.30422e-05, global = 1.65796e-06, cumulative = 0.00431479
smoothSolver:  Solving for omega, Initial residual = 7.42929e-06, Final residual = 2.85854e-07, No Iterations 2
smoothSolver:  Solving for k, Initial residual = 0.000460401, Final residual = 4.4116e-05, No Iterations 4
ExecutionTime = 0.83 s  ClockTime = 0 s

scalarTransport execute: age
smoothSolver:  Solving for age, Initial residual = 0.000830576, Final residual = 7.14521e-05, No Iterations 9

Time = 69

smoothSolver:  Solving for Ux, Initial residual = 0.000948503, Final residual = 9.47858e-05, No Iterations 3
smoothSolver:  Solving for Uy, Initial residual = 0.00116864, Final residual = 8.32459e-05, No Iterations 3
GAMG:  Solving for p, Initial residual = 0.000429087, Final residual = 1.38978e-05, No Iterations 3
time step continuity errors : sum local = 3.47588e-05, global = 1.47474e-06, cumulative = 0.00431626
smoothSolver:  Solving for omega, Initial residual = 6.83969e-06, Final residual = 2.55599e-07, No Iterations 2
smoothSolver:  Solving for k, Initial residual = 0.000440374, Final residual = 4.05656e-05, No Iterations 4
ExecutionTime = 0.84 s  ClockTime = 0 s

scalarTransport execute: age
smoothSolver:  Solving for age, Initial residual = 0.000892931, Final residual = 7.66567e-05, No Iterations 10

Time = 70

smoothSolver:  Solving for Ux, Initial residual = 0.000618856, Final residual = 6.1857e-05, No Iterations 4
smoothSolver:  Solving for Uy, Initial residual = 0.000541534, Final residual = 5.07987e-05, No Iterations 4
GAMG:  Solving for p, Initial residual = 0.000357262, Final residual = 1.40974e-05, No Iterations 3
time step continuity errors : sum local = 3.52572e-05, global = 1.5816e-06, cumulative = 0.00431784
smoothSolver:  Solving for omega, Initial residual = 6.19871e-06, Final residual = 2.5199e-07, No Iterations 2
smoothSolver:  Solving for k, Initial residual = 0.000341216, Final residual = 2.37826e-05, No Iterations 5
ExecutionTime = 0.85 s  ClockTime = 0 s

scalarTransport execute: age
smoothSolver:  Solving for age, Initial residual = 0.000910996, Final residual = 8.86246e-05, No Iterations 10

Time = 71

smoothSolver:  Solving for Ux, Initial residual = 0.000476428, Final residual = 3.83325e-05, No Iterations 5
smoothSolver:  Solving for Uy, Initial residual = 0.000438968, Final residual = 3.01616e-05, No Iterations 5
GAMG:  Solving for p, Initial residual = 0.000261924, Final residual = 2.17696e-05, No Iterations 2
time step continuity errors : sum local = 5.44365e-05, global = 1.75749e-06, cumulative = 0.0043196
smoothSolver:  Solving for omega, Initial residual = 4.61234e-06, Final residual = 2.26323e-07, No Iterations 2
smoothSolver:  Solving for k, Initial residual = 0.000263919, Final residual = 2.17128e-05, No Iterations 5
ExecutionTime = 0.87 s  ClockTime = 0 s

scalarTransport execute: age
smoothSolver:  Solving for age, Initial residual = 0.000812395, Final residual = 7.24054e-05, No Iterations 10

Time = 72

smoothSolver:  Solving for Ux, Initial residual = 0.000429874, Final residual = 3.6513e-05, No Iterations 5
smoothSolver:  Solving for Uy, Initial residual = 0.000393127, Final residual = 2.91842e-05, No Iterations 5
GAMG:  Solving for p, Initial residual = 0.000234591, Final residual = 8.43031e-06, No Iterations 3
time step continuity errors : sum local = 2.10793e-05, global = 2.22798e-06, cumulative = 0.00432183
smoothSolver:  Solving for omega, Initial residual = 5.00692e-06, Final residual = 2.29124e-07, No Iterations 2
smoothSolver:  Solving for k, Initial residual = 0.000242567, Final residual = 1.98173e-05, No Iterations 5
ExecutionTime = 0.88 s  ClockTime = 0 s

scalarTransport execute: age
smoothSolver:  Solving for age, Initial residual = 0.000757255, Final residual = 6.85631e-05, No Iterations 10

Time = 73

smoothSolver:  Solving for Ux, Initial residual = 0.000411109, Final residual = 3.59173e-05, No Iterations 5
smoothSolver:  Solving for Uy, Initial residual = 0.000413293, Final residual = 2.84148e-05, No Iterations 5
GAMG:  Solving for p, Initial residual = 0.000241651, Final residual = 2.10217e-05, No Iterations 2
time step continuity errors : sum local = 5.25593e-05, global = 2.38103e-06, cumulative = 0.00432421
smoothSolver:  Solving for omega, Initial residual = 7.13907e-06, Final residual = 2.42036e-07, No Iterations 2
smoothSolver:  Solving for k, Initial residual = 0.000226477, Final residual = 1.80806e-05, No Iterations 5
ExecutionTime = 0.89 s  ClockTime = 0 s

scalarTransport execute: age
smoothSolver:  Solving for age, Initial residual = 0.000729881, Final residual = 7.2516e-05, No Iterations 9

Time = 74

smoothSolver:  Solving for Ux, Initial residual = 0.00209863, Final residual = 0.000202542, No Iterations 1
smoothSolver:  Solving for Uy, Initial residual = 0.0024453, Final residual = 0.000166057, No Iterations 1
GAMG:  Solving for p, Initial residual = 0.000288015, Final residual = 1.06307e-05, No Iterations 3
time step continuity errors : sum local = 2.65798e-05, global = 1.68636e-06, cumulative = 0.0043259
smoothSolver:  Solving for omega, Initial residual = 4.9589e-06, Final residual = 1.95409e-07, No Iterations 2
smoothSolver:  Solving for k, Initial residual = 0.000393211, Final residual = 2.58772e-05, No Iterations 4
ExecutionTime = 0.9 s  ClockTime = 0 s

scalarTransport execute: age
smoothSolver:  Solving for age, Initial residual = 0.000805456, Final residual = 7.57446e-05, No Iterations 10

Time = 75

smoothSolver:  Solving for Ux, Initial residual = 0.000562293, Final residual = 5.42702e-05, No Iterations 4
smoothSolver:  Solving for Uy, Initial residual = 0.00040832, Final residual = 4.06614e-05, No Iterations 4
GAMG:  Solving for p, Initial residual = 0.000277015, Final residual = 2.26932e-05, No Iterations 2
time step continuity errors : sum local = 5.6739e-05, global = 1.51412e-06, cumulative = 0.00432741
smoothSolver:  Solving for omega, Initial residual = 4.9156e-06, Final residual = 2.16269e-07, No Iterations 2
smoothSolver:  Solving for k, Initial residual = 0.000327456, Final residual = 2.37446e-05, No Iterations 4
ExecutionTime = 0.91 s  ClockTime = 0 s

scalarTransport execute: age
smoothSolver:  Solving for age, Initial residual = 0.000820225, Final residual = 7.73403e-05, No Iterations 11

Time = 76

smoothSolver:  Solving for Ux, Initial residual = 0.00044589, Final residual = 3.42088e-05, No Iterations 5
smoothSolver:  Solving for Uy, Initial residual = 0.000319374, Final residual = 2.44442e-05, No Iterations 5
GAMG:  Solving for p, Initial residual = 0.000227733, Final residual = 1.29107e-05, No Iterations 3
time step continuity errors : sum local = 3.22789e-05, global = 1.70932e-06, cumulative = 0.00432912
smoothSolver:  Solving for omega, Initial residual = 5.24402e-06, Final residual = 2.30284e-07, No Iterations 2
smoothSolver:  Solving for k, Initial residual = 0.000204134, Final residual = 1.38828e-05, No Iterations 5
ExecutionTime = 0.93 s  ClockTime = 0 s

scalarTransport execute: age
smoothSolver:  Solving for age, Initial residual = 0.000736108, Final residual = 7.21478e-05, No Iterations 10

Time = 77

smoothSolver:  Solving for Ux, Initial residual = 0.000423856, Final residual = 3.23169e-05, No Iterations 5
smoothSolver:  Solving for Uy, Initial residual = 0.000326295, Final residual = 2.45027e-05, No Iterations 5
GAMG:  Solving for p, Initial residual = 0.000222362, Final residual = 8.4131e-06, No Iterations 3
time step continuity errors : sum local = 2.10329e-05, global = 1.60872e-06, cumulative = 0.00433073
smoothSolver:  Solving for omega, Initial residual = 4.20358e-06, Final residual = 2.19083e-07, No Iterations 2
smoothSolver:  Solving for k, Initial residual = 0.000163501, Final residual = 1.26495e-05, No Iterations 5
ExecutionTime = 0.94 s  ClockTime = 0 s

scalarTransport execute: age
smoothSolver:  Solving for age, Initial residual = 0.000708, Final residual = 7.04191e-05, No Iterations 10

Time = 78

smoothSolver:  Solving for Ux, Initial residual = 0.000521904, Final residual = 4.89423e-05, No Iterations 4
smoothSolver:  Solving for Uy, Initial residual = 0.000395654, Final residual = 3.73959e-05, No Iterations 4
GAMG:  Solving for p, Initial residual = 0.000338023, Final residual = 3.32058e-05, No Iterations 2
time step continuity errors : sum local = 8.30129e-05, global = 1.4233e-06, cumulative = 0.00433215
smoothSolver:  Solving for omega, Initial residual = 3.04904e-06, Final residual = 1.70816e-07, No Iterations 2
smoothSolver:  Solving for k, Initial residual = 0.000185353, Final residual = 1.80833e-05, No Iterations 4
ExecutionTime = 0.95 s  ClockTime = 0 s

scalarTransport execute: age
smoothSolver:  Solving for age, Initial residual = 0.000703908, Final residual = 5.991e-05, No Iterations 11

Time = 79

smoothSolver:  Solving for Ux, Initial residual = 0.000618809, Final residual = 4.77911e-05, No Iterations 4
smoothSolver:  Solving for Uy, Initial residual = 0.000411527, Final residual = 3.58233e-05, No Iterations 4
GAMG:  Solving for p, Initial residual = 0.000325449, Final residual = 1.45064e-05, No Iterations 3
time step continuity errors : sum local = 3.62647e-05, global = 1.32855e-06, cumulative = 0.00433348
smoothSolver:  Solving for omega, Initial residual = 4.677e-06, Final residual = 1.89528e-07, No Iterations 2
smoothSolver:  Solving for k, Initial residual = 0.000186473, Final residual = 1.65778e-05, No Iterations 4
ExecutionTime = 0.96 s  ClockTime = 1 s

scalarTransport execute: age
smoothSolver:  Solving for age, Initial residual = 0.000737588, Final residual = 6.87361e-05, No Iterations 9

Time = 80

smoothSolver:  Solving for Ux, Initial residual = 0.00042759, Final residual = 3.09434e-05, No Iterations 5
smoothSolver:  Solving for Uy, Initial residual = 0.00034058, Final residual = 3.29744e-05, No Iterations 4
GAMG:  Solving for p, Initial residual = 0.000233262, Final residual = 1.27871e-05, No Iterations 3
time step continuity errors : sum local = 3.19685e-05, global = 1.49668e-06, cumulative = 0.00433498
smoothSolver:  Solving for omega, Initial residual = 4.23307e-06, Final residual = 1.79228e-07, No Iterations 2
smoothSolver:  Solving for k, Initial residual = 0.000139173, Final residual = 9.67794e-06, No Iterations 5
ExecutionTime = 0.98 s  ClockTime = 1 s

scalarTransport execute: age
smoothSolver:  Solving for age, Initial residual = 0.000714256, Final residual = 6.9329e-05, No Iterations 9

Time = 81

smoothSolver:  Solving for Ux, Initial residual = 0.00255862, Final residual = 0.000170565, No Iterations 1
smoothSolver:  Solving for Uy, Initial residual = 0.00034182, Final residual = 3.18061e-05, No Iterations 4
GAMG:  Solving for p, Initial residual = 0.000278133, Final residual = 1.92098e-05, No Iterations 3
time step continuity errors : sum local = 4.80256e-05, global = 1.4184e-06, cumulative = 0.0043364
smoothSolver:  Solving for omega, Initial residual = 4.24632e-06, Final residual = 1.71241e-07, No Iterations 2
smoothSolver:  Solving for k, Initial residual = 0.00021241, Final residual = 1.38356e-05, No Iterations 4
ExecutionTime = 0.99 s  ClockTime = 1 s

scalarTransport execute: age
smoothSolver:  Solving for age, Initial residual = 0.000650078, Final residual = 6.36931e-05, No Iterations 9

Time = 82

smoothSolver:  Solving for Ux, Initial residual = 0.000448491, Final residual = 3.08305e-05, No Iterations 5
smoothSolver:  Solving for Uy, Initial residual = 0.000357614, Final residual = 2.86973e-05, No Iterations 4
GAMG:  Solving for p, Initial residual = 0.000290254, Final residual = 1.57442e-05, No Iterations 3
time step continuity errors : sum local = 3.93669e-05, global = 1.45337e-06, cumulative = 0.00433785
smoothSolver:  Solving for omega, Initial residual = 3.02437e-06, Final residual = 1.54245e-07, No Iterations 2
smoothSolver:  Solving for k, Initial residual = 0.000187277, Final residual = 1.26713e-05, No Iterations 4
ExecutionTime = 1 s  ClockTime = 1 s

scalarTransport execute: age
smoothSolver:  Solving for age, Initial residual = 0.000639068, Final residual = 5.46455e-05, No Iterations 10

Time = 83

smoothSolver:  Solving for Ux, Initial residual = 0.000435293, Final residual = 4.34573e-05, No Iterations 4
smoothSolver:  Solving for Uy, Initial residual = 0.000299214, Final residual = 2.8625e-05, No Iterations 4
GAMG:  Solving for p, Initial residual = 0.000223316, Final residual = 9.45071e-06, No Iterations 3
time step continuity errors : sum local = 2.36272e-05, global = 1.32859e-06, cumulative = 0.00433918
smoothSolver:  Solving for omega, Initial residual = 3.50494e-06, Final residual = 1.45381e-07, No Iterations 2
smoothSolver:  Solving for k, Initial residual = 0.000126139, Final residual = 1.1603e-05, No Iterations 4
ExecutionTime = 1.01 s  ClockTime = 1 s

scalarTransport execute: age
smoothSolver:  Solving for age, Initial residual = 0.000615597, Final residual = 5.11684e-05, No Iterations 9

Time = 84

smoothSolver:  Solving for Ux, Initial residual = 0.000356089, Final residual = 2.66478e-05, No Iterations 5
smoothSolver:  Solving for Uy, Initial residual = 0.000286111, Final residual = 1.88446e-05, No Iterations 5
GAMG:  Solving for p, Initial residual = 0.000211853, Final residual = 1.02256e-05, No Iterations 3
time step continuity errors : sum local = 2.55642e-05, global = 1.15203e-06, cumulative = 0.00434033
smoothSolver:  Solving for omega, Initial residual = 4.79899e-06, Final residual = 1.48085e-07, No Iterations 2
smoothSolver:  Solving for k, Initial residual = 0.000111448, Final residual = 1.06235e-05, No Iterations 4
ExecutionTime = 1.02 s  ClockTime = 1 s

scalarTransport execute: age
smoothSolver:  Solving for age, Initial residual = 0.000654169, Final residual = 6.49994e-05, No Iterations 8

Time = 85

smoothSolver:  Solving for Ux, Initial residual = 0.000483076, Final residual = 4.05703e-05, No Iterations 4
smoothSolver:  Solving for Uy, Initial residual = 0.000406078, Final residual = 2.83617e-05, No Iterations 4
GAMG:  Solving for p, Initial residual = 0.000324887, Final residual = 3.09816e-05, No Iterations 2
time step continuity errors : sum local = 7.7448e-05, global = 8.13116e-07, cumulative = 0.00434114
smoothSolver:  Solving for omega, Initial residual = 2.87098e-06, Final residual = 1.26892e-07, No Iterations 2
smoothSolver:  Solving for k, Initial residual = 0.000135916, Final residual = 9.72431e-06, No Iterations 4
ExecutionTime = 1.03 s  ClockTime = 1 s

scalarTransport execute: age
smoothSolver:  Solving for age, Initial residual = 0.000662355, Final residual = 5.94592e-05, No Iterations 9

Time = 86

smoothSolver:  Solving for Ux, Initial residual = 0.000508198, Final residual = 3.97461e-05, No Iterations 4
smoothSolver:  Solving for Uy, Initial residual = 0.000404834, Final residual = 2.89331e-05, No Iterations 4
GAMG:  Solving for p, Initial residual = 0.000322109, Final residual = 1.159e-05, No Iterations 3
time step continuity errors : sum local = 2.89722e-05, global = 5.2681e-07, cumulative = 0.00434167
smoothSolver:  Solving for omega, Initial residual = 4.20515e-06, Final residual = 1.31869e-07, No Iterations 2
smoothSolver:  Solving for k, Initial residual = 0.000132436, Final residual = 8.89982e-06, No Iterations 4
ExecutionTime = 1.05 s  ClockTime = 1 s

scalarTransport execute: age
smoothSolver:  Solving for age, Initial residual = 0.000669815, Final residual = 5.82713e-05, No Iterations 9

Time = 87

smoothSolver:  Solving for Ux, Initial residual = 0.000393835, Final residual = 3.83615e-05, No Iterations 4
smoothSolver:  Solving for Uy, Initial residual = 0.00034552, Final residual = 2.75563e-05, No Iterations 4
GAMG:  Solving for p, Initial residual = 0.000265508, Final residual = 2.38106e-05, No Iterations 2
time step continuity errors : sum local = 5.95222e-05, global = 5.38703e-07, cumulative = 0.00434221
smoothSolver:  Solving for omega, Initial residual = 2.79373e-06, Final residual = 1.17802e-07, No Iterations 2
smoothSolver:  Solving for k, Initial residual = 0.000114423, Final residual = 8.14179e-06, No Iterations 4
ExecutionTime = 1.06 s  ClockTime = 1 s

scalarTransport execute: age
smoothSolver:  Solving for age, Initial residual = 0.000711012, Final residual = 6.78338e-05, No Iterations 9

Time = 88

smoothSolver:  Solving for Ux, Initial residual = 0.000364791, Final residual = 2.42622e-05, No Iterations 5
smoothSolver:  Solving for Uy, Initial residual = 0.000320703, Final residual = 2.53969e-05, No Iterations 4
GAMG:  Solving for p, Initial residual = 0.000248798, Final residual = 9.4348e-06, No Iterations 3
time step continuity errors : sum local = 2.35848e-05, global = 1.0608e-06, cumulative = 0.00434327
smoothSolver:  Solving for omega, Initial residual = 2.73897e-06, Final residual = 1.17673e-07, No Iterations 2
smoothSolver:  Solving for k, Initial residual = 9.26652e-05, Final residual = 7.448e-06, No Iterations 4
ExecutionTime = 1.07 s  ClockTime = 1 s

scalarTransport execute: age
smoothSolver:  Solving for age, Initial residual = 0.000682932, Final residual = 5.96599e-05, No Iterations 9

Time = 89

smoothSolver:  Solving for Ux, Initial residual = 0.000301518, Final residual = 2.25235e-05, No Iterations 5
smoothSolver:  Solving for Uy, Initial residual = 0.000399655, Final residual = 2.68676e-05, No Iterations 4
GAMG:  Solving for p, Initial residual = 0.000235502, Final residual = 2.15746e-05, No Iterations 2
time step continuity errors : sum local = 5.39286e-05, global = 1.06662e-06, cumulative = 0.00434434
smoothSolver:  Solving for omega, Initial residual = 3.82447e-06, Final residual = 1.30067e-07, No Iterations 2
smoothSolver:  Solving for k, Initial residual = 9.54267e-05, Final residual = 6.81114e-06, No Iterations 4
ExecutionTime = 1.08 s  ClockTime = 1 s

scalarTransport execute: age
smoothSolver:  Solving for age, Initial residual = 0.00063949, Final residual = 5.97753e-05, No Iterations 10

Time = 90

smoothSolver:  Solving for Ux, Initial residual = 0.000393209, Final residual = 3.41562e-05, No Iterations 4
smoothSolver:  Solving for Uy, Initial residual = 0.000342398, Final residual = 2.6629e-05, No Iterations 4
GAMG:  Solving for p, Initial residual = 0.00029671, Final residual = 2.85177e-05, No Iterations 2
time step continuity errors : sum local = 7.12806e-05, global = 1.11694e-06, cumulative = 0.00434545
smoothSolver:  Solving for omega, Initial residual = 2.92915e-06, Final residual = 1.15304e-07, No Iterations 2
smoothSolver:  Solving for k, Initial residual = 9.85016e-05, Final residual = 9.79127e-06, No Iterations 3
ExecutionTime = 1.09 s  ClockTime = 1 s

scalarTransport execute: age
smoothSolver:  Solving for age, Initial residual = 0.000648939, Final residual = 6.34235e-05, No Iterations 10

Time = 91

smoothSolver:  Solving for Ux, Initial residual = 0.00901462, Final residual = 8.71854e-06, No Iterations 1
smoothSolver:  Solving for Uy, Initial residual = 0.362917, Final residual = 6.42031e-05, No Iterations 1
GAMG:  Solving for p, Initial residual = 0.000281064, Final residual = 2.64283e-05, No Iterations 2
time step continuity errors : sum local = 6.60569e-05, global = 1.16215e-06, cumulative = 0.00434662
smoothSolver:  Solving for omega, Initial residual = 2.49851e-06, Final residual = 9.01301e-08, No Iterations 2
smoothSolver:  Solving for k, Initial residual = 0.000189856, Final residual = 1.42829e-05, No Iterations 2
ExecutionTime = 1.1 s  ClockTime = 1 s

scalarTransport execute: age
smoothSolver:  Solving for age, Initial residual = 0.000708002, Final residual = 6.93507e-05, No Iterations 10

Time = 92

smoothSolver:  Solving for Ux, Initial residual = 0.000513405, Final residual = 4.85879e-05, No Iterations 3
smoothSolver:  Solving for Uy, Initial residual = 0.00218012, Final residual = 0.000117128, No Iterations 1
GAMG:  Solving for p, Initial residual = 0.000311426, Final residual = 3.09161e-05, No Iterations 2
time step continuity errors : sum local = 7.72775e-05, global = 1.19573e-06, cumulative = 0.00434781
smoothSolver:  Solving for omega, Initial residual = 3.08849e-06, Final residual = 1.08696e-07, No Iterations 2
smoothSolver:  Solving for k, Initial residual = 0.000236227, Final residual = 2.19798e-05, No Iterations 1
ExecutionTime = 1.11 s  ClockTime = 1 s

scalarTransport execute: age
smoothSolver:  Solving for age, Initial residual = 0.000730293, Final residual = 7.25801e-05, No Iterations 10

Time = 93

smoothSolver:  Solving for Ux, Initial residual = 0.000374773, Final residual = 3.20463e-05, No Iterations 4
smoothSolver:  Solving for Uy, Initial residual = 0.000344156, Final residual = 2.48591e-05, No Iterations 4
GAMG:  Solving for p, Initial residual = 0.000265693, Final residual = 2.50247e-05, No Iterations 2
time step continuity errors : sum local = 6.25488e-05, global = 1.41531e-06, cumulative = 0.00434923
smoothSolver:  Solving for omega, Initial residual = 2.46064e-06, Final residual = 8.05512e-08, No Iterations 2
smoothSolver:  Solving for k, Initial residual = 0.000153518, Final residual = 1.28833e-05, No Iterations 2
ExecutionTime = 1.13 s  ClockTime = 1 s

scalarTransport execute: age
smoothSolver:  Solving for age, Initial residual = 0.000699671, Final residual = 6.85523e-05, No Iterations 9

Time = 94

smoothSolver:  Solving for Ux, Initial residual = 0.00111221, Final residual = 7.56554e-05, No Iterations 2
smoothSolver:  Solving for Uy, Initial residual = 0.000411852, Final residual = 3.85823e-05, No Iterations 3
GAMG:  Solving for p, Initial residual = 0.000287144, Final residual = 1.63483e-05, No Iterations 3
time step continuity errors : sum local = 4.08625e-05, global = 1.43633e-06, cumulative = 0.00435066
smoothSolver:  Solving for omega, Initial residual = 3.1657e-06, Final residual = 1.01925e-07, No Iterations 2
smoothSolver:  Solving for k, Initial residual = 0.000117615, Final residual = 7.67963e-06, No Iterations 3
ExecutionTime = 1.14 s  ClockTime = 1 s

scalarTransport execute: age
smoothSolver:  Solving for age, Initial residual = 0.000645087, Final residual = 5.70103e-05, No Iterations 10

Time = 95

smoothSolver:  Solving for Ux, Initial residual = 0.000365118, Final residual = 3.13428e-05, No Iterations 4
[...]
smoothSolver:  Solving for Uy, Initial residual = 0.001277, Final residual = 4.9521e-05, No Iterations 1
GAMG:  Solving for p, Initial residual = 0.000284943, Final residual = 1.02763e-05, No Iterations 3
time step continuity errors : sum local = 2.56729e-05, global = -3.19375e-07, cumulative = 0.00444262
smoothSolver:  Solving for omega, Initial residual = 1.57033e-06, Final residual = 1.2273e-07, No Iterations 1
smoothSolver:  Solving for k, Initial residual = 0.00014341, Final residual = 1.02079e-06, No Iterations 1
ExecutionTime = 20.75 s  ClockTime = 20 s

scalarTransport execute: age
smoothSolver:  Solving for age, Initial residual = 0.000383243, Final residual = 3.61632e-05, No Iterations 8

Time = 1978

smoothSolver:  Solving for Ux, Initial residual = 0.000338534, Final residual = 2.66475e-05, No Iterations 2
smoothSolver:  Solving for Uy, Initial residual = 0.000478845, Final residual = 2.57413e-05, No Iterations 2
GAMG:  Solving for p, Initial residual = 0.000381841, Final residual = 3.51573e-05, No Iterations 2
time step continuity errors : sum local = 8.78344e-05, global = -3.61156e-07, cumulative = 0.00444226
smoothSolver:  Solving for omega, Initial residual = 1.63108e-06, Final residual = 1.33643e-07, No Iterations 1
smoothSolver:  Solving for k, Initial residual = 0.000132248, Final residual = 7.52035e-07, No Iterations 1
ExecutionTime = 20.76 s  ClockTime = 20 s

scalarTransport execute: age
smoothSolver:  Solving for age, Initial residual = 0.000493838, Final residual = 4.65066e-05, No Iterations 9

Time = 1979

smoothSolver:  Solving for Ux, Initial residual = 0.000309797, Final residual = 2.03738e-05, No Iterations 2
smoothSolver:  Solving for Uy, Initial residual = 0.000301181, Final residual = 1.95788e-05, No Iterations 2
GAMG:  Solving for p, Initial residual = 0.000299425, Final residual = 2.71726e-05, No Iterations 2
time step continuity errors : sum local = 6.78798e-05, global = -4.11701e-07, cumulative = 0.00444185
smoothSolver:  Solving for omega, Initial residual = 1.92322e-06, Final residual = 1.3736e-07, No Iterations 1
smoothSolver:  Solving for k, Initial residual = 6.52483e-05, Final residual = 4.21932e-07, No Iterations 1
ExecutionTime = 20.77 s  ClockTime = 20 s

scalarTransport execute: age
smoothSolver:  Solving for age, Initial residual = 0.000410861, Final residual = 3.63654e-05, No Iterations 8

Time = 1980

smoothSolver:  Solving for Ux, Initial residual = 0.000185638, Final residual = 1.3595e-05, No Iterations 2
smoothSolver:  Solving for Uy, Initial residual = 0.000202149, Final residual = 1.32508e-05, No Iterations 2
GAMG:  Solving for p, Initial residual = 0.000225405, Final residual = 1.90868e-05, No Iterations 2
time step continuity errors : sum local = 4.76802e-05, global = -2.64236e-07, cumulative = 0.00444159
smoothSolver:  Solving for omega, Initial residual = 1.32262e-06, Final residual = 9.554e-08, No Iterations 1
smoothSolver:  Solving for k, Initial residual = 5.39119e-05, Final residual = 3.71829e-07, No Iterations 1
ExecutionTime = 20.78 s  ClockTime = 20 s

scalarTransport execute: age
smoothSolver:  Solving for age, Initial residual = 0.000346707, Final residual = 3.19766e-05, No Iterations 8

Time = 1981

smoothSolver:  Solving for Ux, Initial residual = 0.000134644, Final residual = 1.09071e-05, No Iterations 2
smoothSolver:  Solving for Uy, Initial residual = 0.000141227, Final residual = 1.13299e-05, No Iterations 2
GAMG:  Solving for p, Initial residual = 0.000152154, Final residual = 1.29938e-05, No Iterations 2
time step continuity errors : sum local = 3.24581e-05, global = -5.4665e-08, cumulative = 0.00444153
smoothSolver:  Solving for omega, Initial residual = 8.07088e-07, Final residual = 6.45941e-08, No Iterations 1
smoothSolver:  Solving for k, Initial residual = 3.41389e-05, Final residual = 2.63047e-07, No Iterations 1
ExecutionTime = 20.79 s  ClockTime = 20 s

scalarTransport execute: age
smoothSolver:  Solving for age, Initial residual = 0.000273784, Final residual = 2.48308e-05, No Iterations 10

Time = 1982

smoothSolver:  Solving for Ux, Initial residual = 0.00064596, Final residual = 3.87693e-05, No Iterations 1
smoothSolver:  Solving for Uy, Initial residual = 0.000372498, Final residual = 3.51356e-05, No Iterations 1
GAMG:  Solving for p, Initial residual = 0.000276855, Final residual = 1.06757e-05, No Iterations 3
time step continuity errors : sum local = 2.66684e-05, global = -1.82233e-07, cumulative = 0.00444135
smoothSolver:  Solving for omega, Initial residual = 1.26768e-06, Final residual = 1.12828e-07, No Iterations 1
smoothSolver:  Solving for k, Initial residual = 9.06611e-05, Final residual = 7.33297e-07, No Iterations 1
ExecutionTime = 20.8 s  ClockTime = 20 s

scalarTransport execute: age
smoothSolver:  Solving for age, Initial residual = 0.000295157, Final residual = 2.73257e-05, No Iterations 9

Time = 1983

smoothSolver:  Solving for Ux, Initial residual = 0.000254754, Final residual = 1.95233e-05, No Iterations 2
smoothSolver:  Solving for Uy, Initial residual = 0.000273679, Final residual = 1.94536e-05, No Iterations 2
GAMG:  Solving for p, Initial residual = 0.000232655, Final residual = 1.8288e-05, No Iterations 2
time step continuity errors : sum local = 4.56863e-05, global = -6.17829e-08, cumulative = 0.00444129
smoothSolver:  Solving for omega, Initial residual = 1.48099e-06, Final residual = 1.07679e-07, No Iterations 1
smoothSolver:  Solving for k, Initial residual = 7.15745e-05, Final residual = 5.27844e-07, No Iterations 1
ExecutionTime = 20.81 s  ClockTime = 20 s

scalarTransport execute: age
smoothSolver:  Solving for age, Initial residual = 0.00032001, Final residual = 3.12576e-05, No Iterations 9

Time = 1984

smoothSolver:  Solving for Ux, Initial residual = 0.000477823, Final residual = 3.58997e-05, No Iterations 1
smoothSolver:  Solving for Uy, Initial residual = 0.000219232, Final residual = 9.35206e-06, No Iterations 2
GAMG:  Solving for p, Initial residual = 0.000186969, Final residual = 6.96538e-06, No Iterations 3
time step continuity errors : sum local = 1.74002e-05, global = -3.31495e-08, cumulative = 0.00444126
smoothSolver:  Solving for omega, Initial residual = 1.47234e-06, Final residual = 1.24799e-07, No Iterations 1
smoothSolver:  Solving for k, Initial residual = 5.74532e-05, Final residual = 4.50813e-07, No Iterations 1
ExecutionTime = 20.82 s  ClockTime = 20 s

scalarTransport execute: age
smoothSolver:  Solving for age, Initial residual = 0.000248276, Final residual = 2.22802e-05, No Iterations 10

Time = 1985

smoothSolver:  Solving for Ux, Initial residual = 0.000197114, Final residual = 1.45357e-05, No Iterations 2
smoothSolver:  Solving for Uy, Initial residual = 0.000151656, Final residual = 1.38403e-05, No Iterations 2
GAMG:  Solving for p, Initial residual = 0.000187939, Final residual = 1.63406e-05, No Iterations 2
time step continuity errors : sum local = 4.08202e-05, global = 2.18606e-07, cumulative = 0.00444147
smoothSolver:  Solving for omega, Initial residual = 1.61339e-06, Final residual = 1.25821e-07, No Iterations 1
smoothSolver:  Solving for k, Initial residual = 4.66103e-05, Final residual = 3.01436e-07, No Iterations 1
ExecutionTime = 20.83 s  ClockTime = 20 s

scalarTransport execute: age
smoothSolver:  Solving for age, Initial residual = 0.00020492, Final residual = 1.88006e-05, No Iterations 9

Time = 1986

smoothSolver:  Solving for Ux, Initial residual = 0.000146204, Final residual = 1.25398e-05, No Iterations 2
smoothSolver:  Solving for Uy, Initial residual = 0.000255575, Final residual = 1.38118e-05, No Iterations 2
GAMG:  Solving for p, Initial residual = 0.000199029, Final residual = 7.18922e-06, No Iterations 3
time step continuity errors : sum local = 1.79589e-05, global = 3.32898e-07, cumulative = 0.00444181
smoothSolver:  Solving for omega, Initial residual = 1.20335e-06, Final residual = 7.80469e-08, No Iterations 1
smoothSolver:  Solving for k, Initial residual = 4.97295e-05, Final residual = 3.26176e-07, No Iterations 1
ExecutionTime = 20.84 s  ClockTime = 20 s

scalarTransport execute: age
smoothSolver:  Solving for age, Initial residual = 0.000257506, Final residual = 2.33688e-05, No Iterations 7

Time = 1987

smoothSolver:  Solving for Ux, Initial residual = 0.00150105, Final residual = 4.81074e-05, No Iterations 1
smoothSolver:  Solving for Uy, Initial residual = 0.000287067, Final residual = 1.33809e-05, No Iterations 2
GAMG:  Solving for p, Initial residual = 0.000258326, Final residual = 1.36515e-05, No Iterations 3
time step continuity errors : sum local = 3.41022e-05, global = 8.97742e-08, cumulative = 0.0044419
smoothSolver:  Solving for omega, Initial residual = 1.22582e-06, Final residual = 1.01982e-07, No Iterations 1
smoothSolver:  Solving for k, Initial residual = 0.000120411, Final residual = 1.14878e-06, No Iterations 1
ExecutionTime = 20.85 s  ClockTime = 20 s

scalarTransport execute: age
smoothSolver:  Solving for age, Initial residual = 0.000310997, Final residual = 3.09519e-05, No Iterations 5

Time = 1988

smoothSolver:  Solving for Ux, Initial residual = 0.000253089, Final residual = 1.87132e-05, No Iterations 2
smoothSolver:  Solving for Uy, Initial residual = 0.000206633, Final residual = 1.66858e-05, No Iterations 2
GAMG:  Solving for p, Initial residual = 0.000219758, Final residual = 1.02851e-05, No Iterations 3
time step continuity errors : sum local = 2.56954e-05, global = 1.8288e-07, cumulative = 0.00444208
smoothSolver:  Solving for omega, Initial residual = 1.50931e-06, Final residual = 1.18389e-07, No Iterations 1
smoothSolver:  Solving for k, Initial residual = 8.91977e-05, Final residual = 7.54337e-07, No Iterations 1
ExecutionTime = 20.86 s  ClockTime = 20 s

scalarTransport execute: age
smoothSolver:  Solving for age, Initial residual = 0.000273106, Final residual = 2.67009e-05, No Iterations 6

Time = 1989

smoothSolver:  Solving for Ux, Initial residual = 0.000372315, Final residual = 3.27146e-05, No Iterations 1
smoothSolver:  Solving for Uy, Initial residual = 0.000163662, Final residual = 1.00028e-05, No Iterations 2
GAMG:  Solving for p, Initial residual = 0.000194066, Final residual = 8.80016e-06, No Iterations 3
time step continuity errors : sum local = 2.19842e-05, global = 2.73283e-07, cumulative = 0.00444235
smoothSolver:  Solving for omega, Initial residual = 1.3571e-06, Final residual = 9.99244e-08, No Iterations 1
smoothSolver:  Solving for k, Initial residual = 4.91064e-05, Final residual = 3.8124e-07, No Iterations 1
ExecutionTime = 20.87 s  ClockTime = 20 s

scalarTransport execute: age
smoothSolver:  Solving for age, Initial residual = 0.000223139, Final residual = 2.11537e-05, No Iterations 8

Time = 1990

smoothSolver:  Solving for Ux, Initial residual = 0.00016674, Final residual = 1.27589e-05, No Iterations 2
smoothSolver:  Solving for Uy, Initial residual = 0.000458377, Final residual = 3.37226e-05, No Iterations 1
GAMG:  Solving for p, Initial residual = 0.000215957, Final residual = 1.96553e-05, No Iterations 2
time step continuity errors : sum local = 4.91047e-05, global = 3.06389e-07, cumulative = 0.00444266
smoothSolver:  Solving for omega, Initial residual = 1.53581e-06, Final residual = 1.08789e-07, No Iterations 1
smoothSolver:  Solving for k, Initial residual = 6.75787e-05, Final residual = 3.3799e-07, No Iterations 1
ExecutionTime = 20.88 s  ClockTime = 20 s

scalarTransport execute: age
smoothSolver:  Solving for age, Initial residual = 0.000210741, Final residual = 2.07343e-05, No Iterations 8

Time = 1991

smoothSolver:  Solving for Ux, Initial residual = 0.000284983, Final residual = 1.53221e-05, No Iterations 2
smoothSolver:  Solving for Uy, Initial residual = 0.000229584, Final residual = 1.46133e-05, No Iterations 2
GAMG:  Solving for p, Initial residual = 0.000256641, Final residual = 1.85194e-05, No Iterations 2
time step continuity errors : sum local = 4.62619e-05, global = 3.35124e-07, cumulative = 0.00444299
smoothSolver:  Solving for omega, Initial residual = 1.60201e-06, Final residual = 9.6879e-08, No Iterations 1
smoothSolver:  Solving for k, Initial residual = 5.8068e-05, Final residual = 2.90863e-07, No Iterations 1
ExecutionTime = 20.89 s  ClockTime = 20 s

scalarTransport execute: age
smoothSolver:  Solving for age, Initial residual = 0.000204217, Final residual = 1.77693e-05, No Iterations 8

Time = 1992

smoothSolver:  Solving for Ux, Initial residual = 0.000426509, Final residual = 4.0425e-05, No Iterations 1
smoothSolver:  Solving for Uy, Initial residual = 0.0015755, Final residual = 4.52416e-05, No Iterations 1
GAMG:  Solving for p, Initial residual = 0.000275462, Final residual = 2.46464e-05, No Iterations 2
time step continuity errors : sum local = 6.15696e-05, global = 2.65189e-07, cumulative = 0.00444326
smoothSolver:  Solving for omega, Initial residual = 1.92173e-06, Final residual = 1.31819e-07, No Iterations 1
smoothSolver:  Solving for k, Initial residual = 0.000127288, Final residual = 9.378e-07, No Iterations 1
ExecutionTime = 20.9 s  ClockTime = 20 s

scalarTransport execute: age
smoothSolver:  Solving for age, Initial residual = 0.000305955, Final residual = 2.86623e-05, No Iterations 9

Time = 1993

smoothSolver:  Solving for Ux, Initial residual = 0.000493547, Final residual = 3.91749e-05, No Iterations 1
smoothSolver:  Solving for Uy, Initial residual = 0.00121416, Final residual = 4.46849e-05, No Iterations 1
GAMG:  Solving for p, Initial residual = 0.000258259, Final residual = 1.82446e-05, No Iterations 2
time step continuity errors : sum local = 4.5577e-05, global = -1.80636e-07, cumulative = 0.00444308
smoothSolver:  Solving for omega, Initial residual = 1.79475e-06, Final residual = 1.27149e-07, No Iterations 1
smoothSolver:  Solving for k, Initial residual = 0.000198443, Final residual = 1.27233e-06, No Iterations 1
ExecutionTime = 20.91 s  ClockTime = 20 s

scalarTransport execute: age
smoothSolver:  Solving for age, Initial residual = 0.00034229, Final residual = 3.32447e-05, No Iterations 10

Time = 1994

smoothSolver:  Solving for Ux, Initial residual = 0.000303676, Final residual = 1.97395e-05, No Iterations 2
smoothSolver:  Solving for Uy, Initial residual = 0.000290382, Final residual = 2.00049e-05, No Iterations 2
GAMG:  Solving for p, Initial residual = 0.000313873, Final residual = 2.42283e-05, No Iterations 2
time step continuity errors : sum local = 6.05252e-05, global = -3.03626e-07, cumulative = 0.00444278
smoothSolver:  Solving for omega, Initial residual = 1.47359e-06, Final residual = 1.15487e-07, No Iterations 1
smoothSolver:  Solving for k, Initial residual = 0.000121063, Final residual = 8.0355e-07, No Iterations 1
ExecutionTime = 20.92 s  ClockTime = 20 s

scalarTransport execute: age
smoothSolver:  Solving for age, Initial residual = 0.000333407, Final residual = 3.06039e-05, No Iterations 13

Time = 1995

smoothSolver:  Solving for Ux, Initial residual = 0.000963871, Final residual = 4.65514e-05, No Iterations 1
smoothSolver:  Solving for Uy, Initial residual = 0.000225071, Final residual = 1.38542e-05, No Iterations 2
GAMG:  Solving for p, Initial residual = 0.00028154, Final residual = 1.35217e-05, No Iterations 3
time step continuity errors : sum local = 3.37776e-05, global = -2.89096e-07, cumulative = 0.00444249
smoothSolver:  Solving for omega, Initial residual = 1.70921e-06, Final residual = 1.34164e-07, No Iterations 1
smoothSolver:  Solving for k, Initial residual = 0.000100579, Final residual = 7.05111e-07, No Iterations 1
ExecutionTime = 20.93 s  ClockTime = 20 s

scalarTransport execute: age
smoothSolver:  Solving for age, Initial residual = 0.000341126, Final residual = 3.16227e-05, No Iterations 11

Time = 1996

smoothSolver:  Solving for Ux, Initial residual = 0.000587022, Final residual = 3.76556e-05, No Iterations 1
smoothSolver:  Solving for Uy, Initial residual = 0.00029744, Final residual = 1.64373e-05, No Iterations 2
GAMG:  Solving for p, Initial residual = 0.000246978, Final residual = 1.77545e-05, No Iterations 2
time step continuity errors : sum local = 4.43616e-05, global = -1.57334e-07, cumulative = 0.00444233
smoothSolver:  Solving for omega, Initial residual = 1.58833e-06, Final residual = 1.24724e-07, No Iterations 1
smoothSolver:  Solving for k, Initial residual = 0.000109454, Final residual = 5.96329e-07, No Iterations 1
ExecutionTime = 20.94 s  ClockTime = 21 s

scalarTransport execute: age
smoothSolver:  Solving for age, Initial residual = 0.000284415, Final residual = 2.42001e-05, No Iterations 10

Time = 1997

smoothSolver:  Solving for Ux, Initial residual = 0.000190223, Final residual = 1.63237e-05, No Iterations 2
smoothSolver:  Solving for Uy, Initial residual = 0.000195052, Final residual = 1.38174e-05, No Iterations 2
GAMG:  Solving for p, Initial residual = 0.000188465, Final residual = 9.30449e-06, No Iterations 3
time step continuity errors : sum local = 2.32456e-05, global = 1.32696e-07, cumulative = 0.00444246
smoothSolver:  Solving for omega, Initial residual = 8.70075e-07, Final residual = 6.76554e-08, No Iterations 1
smoothSolver:  Solving for k, Initial residual = 5.6136e-05, Final residual = 3.50924e-07, No Iterations 1
ExecutionTime = 20.95 s  ClockTime = 21 s

scalarTransport execute: age
smoothSolver:  Solving for age, Initial residual = 0.000218292, Final residual = 2.13306e-05, No Iterations 9

Time = 1998

smoothSolver:  Solving for Ux, Initial residual = 0.000134972, Final residual = 1.23183e-05, No Iterations 2
smoothSolver:  Solving for Uy, Initial residual = 0.000164292, Final residual = 1.12696e-05, No Iterations 2
GAMG:  Solving for p, Initial residual = 0.000186781, Final residual = 1.6685e-05, No Iterations 2
time step continuity errors : sum local = 4.1681e-05, global = 3.74453e-07, cumulative = 0.00444284
smoothSolver:  Solving for omega, Initial residual = 9.68895e-07, Final residual = 7.64859e-08, No Iterations 1
smoothSolver:  Solving for k, Initial residual = 4.4441e-05, Final residual = 2.78476e-07, No Iterations 1
ExecutionTime = 20.96 s  ClockTime = 21 s

scalarTransport execute: age
smoothSolver:  Solving for age, Initial residual = 0.000202472, Final residual = 1.77961e-05, No Iterations 8

Time = 1999

smoothSolver:  Solving for Ux, Initial residual = 0.000106241, Final residual = 9.49283e-06, No Iterations 2
smoothSolver:  Solving for Uy, Initial residual = 0.000129309, Final residual = 1.09324e-05, No Iterations 2
GAMG:  Solving for p, Initial residual = 0.000149664, Final residual = 1.24758e-05, No Iterations 2
time step continuity errors : sum local = 3.11649e-05, global = 4.69153e-07, cumulative = 0.00444331
smoothSolver:  Solving for omega, Initial residual = 1.04132e-06, Final residual = 8.61177e-08, No Iterations 1
smoothSolver:  Solving for k, Initial residual = 3.26999e-05, Final residual = 2.47773e-07, No Iterations 1
ExecutionTime = 20.97 s  ClockTime = 21 s

scalarTransport execute: age
smoothSolver:  Solving for age, Initial residual = 0.000221227, Final residual = 1.92563e-05, No Iterations 7

Time = 2000

smoothSolver:  Solving for Ux, Initial residual = 0.000178197, Final residual = 1.0239e-05, No Iterations 2
smoothSolver:  Solving for Uy, Initial residual = 0.000590276, Final residual = 3.48012e-05, No Iterations 1
GAMG:  Solving for p, Initial residual = 0.000205681, Final residual = 7.06563e-06, No Iterations 3
time step continuity errors : sum local = 1.76496e-05, global = 2.11365e-07, cumulative = 0.00444352
smoothSolver:  Solving for omega, Initial residual = 6.50567e-07, Final residual = 5.98893e-08, No Iterations 1
smoothSolver:  Solving for k, Initial residual = 6.52032e-05, Final residual = 4.99911e-07, No Iterations 1
ExecutionTime = 21.01 s  ClockTime = 21 s

scalarTransport execute: age
smoothSolver:  Solving for age, Initial residual = 0.000279688, Final residual = 2.67125e-05, No Iterations 5

End

