/*---------------------------------------------------------------------------*\
| =========                 |                                                 |
| \\      /  F ield         | OpenFOAM: The Open Source CFD Toolbox           |
|  \\    /   O peration     | Version:  v2012                                 |
|   \\  /    A nd           | Website:  www.openfoam.com                      |
|    \\/     M anipulation  |                                                 |
\*---------------------------------------------------------------------------*/
Build  : _7bdb509494-20201222 OPENFOAM=2012
Arch   : "LSB;label=32;scalar=64"
Exec   : simpleFoam
Date   : Feb 22 2023
Time   : 17:13:32
Host   : johnsDesktop
PID    : 5290
I/O    : uncollated
Case   : /home/john/of_runs/cases/0_1_4-00580_9
nProcs : 1
trapFpe: Floating point exception trapping enabled (FOAM_SIGFPE).
fileModificationChecking : Monitoring run-time modified files using timeStampMaster (fileModificationSkew 5, maxFileModificationPolls 20)
allowSystemOperations : Allowing user-supplied system call operations

// * * * * * * * * * * * * * * * * * * * * * * * * * * * * * * * * * * * * * //
Create time

Create mesh for time = 0


SIMPLE: convergence criteria
    field p	 tolerance 1e-06
    field U	 tolerance 1e-06
    field "(k|epsilon|omega|f|v2|age)"	 tolerance 1e-05

Reading field p

Reading field U

Reading/calculating face flux field phi

Selecting incompressible transport model Newtonian
Selecting turbulence model type RAS
Selecting RAS turbulence model kOmegaSST
Selecting patchDistMethod meshWave
RAS
{
    RASModel        kOmegaSST;
    turbulence      on;
    printCoeffs     on;
    alphaK1         0.85;
    alphaK2         1;
    alphaOmega1     0.5;
    alphaOmega2     0.856;
    gamma1          0.555556;
    gamma2          0.44;
    beta1           0.075;
    beta2           0.0828;
    betaStar        0.09;
    a1              0.31;
    b1              1;
    c1              10;
    F3              false;
    decayControl    false;
    kInf            0;
    omegaInf        0;
}

No MRF models present

No finite volume options present

Starting time loop

Selecting finite volume options type scalarSemiImplicitSource
    Source: unitySource
    - selecting all cells
    - selected 6108 cell(s) with volume 0.03195
Time = 1

smoothSolver:  Solving for Ux, Initial residual = 0, Final residual = 0, No Iterations 0
smoothSolver:  Solving for Uy, Initial residual = 1, Final residual = 0.0865771, No Iterations 2
GAMG:  Solving for p, Initial residual = 1, Final residual = 0.0639586, No Iterations 11
time step continuity errors : sum local = 0.00400367, global = -0.000468166, cumulative = -0.000468166
smoothSolver:  Solving for omega, Initial residual = 0.294962, Final residual = 0.0125585, No Iterations 3
smoothSolver:  Solving for k, Initial residual = 1, Final residual = 0.0816571, No Iterations 3
ExecutionTime = 0.05 s  ClockTime = 0 s

scalarTransport execute: age
smoothSolver:  Solving for age, Initial residual = 1, Final residual = 0.0998403, No Iterations 3

Time = 2

smoothSolver:  Solving for Ux, Initial residual = 0.576025, Final residual = 0.0498642, No Iterations 6
smoothSolver:  Solving for Uy, Initial residual = 0.277823, Final residual = 0.0201409, No Iterations 6
GAMG:  Solving for p, Initial residual = 0.0446111, Final residual = 0.00397678, No Iterations 4
time step continuity errors : sum local = 0.0437316, global = 0.00551213, cumulative = 0.00504396
smoothSolver:  Solving for omega, Initial residual = 0.263068, Final residual = 0.0138282, No Iterations 4
smoothSolver:  Solving for k, Initial residual = 0.612561, Final residual = 0.0590852, No Iterations 4
ExecutionTime = 0.07 s  ClockTime = 0 s

scalarTransport execute: age
smoothSolver:  Solving for age, Initial residual = 0.578755, Final residual = 0.0499462, No Iterations 19

Time = 3

smoothSolver:  Solving for Ux, Initial residual = 0.243097, Final residual = 0.0184769, No Iterations 6
smoothSolver:  Solving for Uy, Initial residual = 0.0980617, Final residual = 0.00912729, No Iterations 5
GAMG:  Solving for p, Initial residual = 0.0546155, Final residual = 0.00341585, No Iterations 5
time step continuity errors : sum local = 0.0166464, global = 0.00202006, cumulative = 0.00706402
smoothSolver:  Solving for omega, Initial residual = 0.240026, Final residual = 0.0139, No Iterations 5
smoothSolver:  Solving for k, Initial residual = 0.516796, Final residual = 0.0404732, No Iterations 5
ExecutionTime = 0.08 s  ClockTime = 0 s

scalarTransport execute: age
smoothSolver:  Solving for age, Initial residual = 0.195523, Final residual = 0.0190966, No Iterations 14

Time = 4

smoothSolver:  Solving for Ux, Initial residual = 0.119262, Final residual = 0.0105196, No Iterations 3
smoothSolver:  Solving for Uy, Initial residual = 0.0509616, Final residual = 0.00368393, No Iterations 5
GAMG:  Solving for p, Initial residual = 0.0858317, Final residual = 0.00647137, No Iterations 3
time step continuity errors : sum local = 0.0154494, global = 0.00102864, cumulative = 0.00809266
smoothSolver:  Solving for omega, Initial residual = 0.135887, Final residual = 0.00978572, No Iterations 5
smoothSolver:  Solving for k, Initial residual = 0.447245, Final residual = 0.039141, No Iterations 5
ExecutionTime = 0.09 s  ClockTime = 0 s

scalarTransport execute: age
smoothSolver:  Solving for age, Initial residual = 0.163141, Final residual = 0.0141534, No Iterations 8

Time = 5

smoothSolver:  Solving for Ux, Initial residual = 0.0955298, Final residual = 0.00887559, No Iterations 5
smoothSolver:  Solving for Uy, Initial residual = 0.0336235, Final residual = 0.00261983, No Iterations 5
GAMG:  Solving for p, Initial residual = 0.0824935, Final residual = 0.00347916, No Iterations 2
time step continuity errors : sum local = 0.00694736, global = 0.000929847, cumulative = 0.00902251
smoothSolver:  Solving for omega, Initial residual = 0.0950364, Final residual = 0.00749146, No Iterations 5
smoothSolver:  Solving for k, Initial residual = 0.359652, Final residual = 0.0336863, No Iterations 5
ExecutionTime = 0.1 s  ClockTime = 0 s

scalarTransport execute: age
smoothSolver:  Solving for age, Initial residual = 0.153027, Final residual = 0.0151227, No Iterations 4

Time = 6

smoothSolver:  Solving for Ux, Initial residual = 0.0782637, Final residual = 0.00612446, No Iterations 6
smoothSolver:  Solving for Uy, Initial residual = 0.0269564, Final residual = 0.00224466, No Iterations 5
GAMG:  Solving for p, Initial residual = 0.0646723, Final residual = 0.00432779, No Iterations 2
time step continuity errors : sum local = 0.00886234, global = 0.000243667, cumulative = 0.00926618
smoothSolver:  Solving for omega, Initial residual = 0.0772397, Final residual = 0.00643027, No Iterations 5
smoothSolver:  Solving for k, Initial residual = 0.287337, Final residual = 0.0284774, No Iterations 5
ExecutionTime = 0.11 s  ClockTime = 0 s

scalarTransport execute: age
smoothSolver:  Solving for age, Initial residual = 0.13208, Final residual = 0.0104615, No Iterations 5

Time = 7

smoothSolver:  Solving for Ux, Initial residual = 0.0688588, Final residual = 0.0054768, No Iterations 6
smoothSolver:  Solving for Uy, Initial residual = 0.0228296, Final residual = 0.00204877, No Iterations 5
GAMG:  Solving for p, Initial residual = 0.0526246, Final residual = 0.0042013, No Iterations 3
time step continuity errors : sum local = 0.00876149, global = -0.000662732, cumulative = 0.00860344
smoothSolver:  Solving for omega, Initial residual = 0.0589186, Final residual = 0.00524983, No Iterations 5
smoothSolver:  Solving for k, Initial residual = 0.238034, Final residual = 0.015582, No Iterations 6
ExecutionTime = 0.13 s  ClockTime = 0 s

scalarTransport execute: age
smoothSolver:  Solving for age, Initial residual = 0.122362, Final residual = 0.00812668, No Iterations 4

Time = 8

smoothSolver:  Solving for Ux, Initial residual = 0.0447648, Final residual = 0.00404829, No Iterations 5
smoothSolver:  Solving for Uy, Initial residual = 0.0209783, Final residual = 0.00195937, No Iterations 5
GAMG:  Solving for p, Initial residual = 0.0418476, Final residual = 0.00201458, No Iterations 3
time step continuity errors : sum local = 0.0047364, global = -0.000461938, cumulative = 0.00814151
smoothSolver:  Solving for omega, Initial residual = 0.0479825, Final residual = 0.00441242, No Iterations 5
smoothSolver:  Solving for k, Initial residual = 0.202826, Final residual = 0.0137202, No Iterations 6
ExecutionTime = 0.14 s  ClockTime = 0 s

scalarTransport execute: age
smoothSolver:  Solving for age, Initial residual = 0.111105, Final residual = 0.00913708, No Iterations 3

Time = 9

smoothSolver:  Solving for Ux, Initial residual = 0.035895, Final residual = 0.0033674, No Iterations 5
smoothSolver:  Solving for Uy, Initial residual = 0.018174, Final residual = 0.00165359, No Iterations 5
GAMG:  Solving for p, Initial residual = 0.0336317, Final residual = 0.00212765, No Iterations 2
time step continuity errors : sum local = 0.00542097, global = -0.000564654, cumulative = 0.00757685
smoothSolver:  Solving for omega, Initial residual = 0.0403486, Final residual = 0.0037997, No Iterations 5
smoothSolver:  Solving for k, Initial residual = 0.175746, Final residual = 0.0122313, No Iterations 6
ExecutionTime = 0.15 s  ClockTime = 0 s

scalarTransport execute: age
smoothSolver:  Solving for age, Initial residual = 0.100282, Final residual = 0.00780867, No Iterations 3

Time = 10

smoothSolver:  Solving for Ux, Initial residual = 0.033723, Final residual = 0.00225911, No Iterations 6
smoothSolver:  Solving for Uy, Initial residual = 0.0185848, Final residual = 0.00169036, No Iterations 5
GAMG:  Solving for p, Initial residual = 0.0290145, Final residual = 0.00110758, No Iterations 2
time step continuity errors : sum local = 0.00292801, global = -0.000502188, cumulative = 0.00707466
smoothSolver:  Solving for omega, Initial residual = 0.0336345, Final residual = 0.00326236, No Iterations 5
smoothSolver:  Solving for k, Initial residual = 0.154871, Final residual = 0.0110183, No Iterations 6
ExecutionTime = 0.16 s  ClockTime = 0 s

scalarTransport execute: age
smoothSolver:  Solving for age, Initial residual = 0.0949692, Final residual = 0.00575938, No Iterations 3

Time = 11

smoothSolver:  Solving for Ux, Initial residual = 0.031323, Final residual = 0.0021623, No Iterations 6
smoothSolver:  Solving for Uy, Initial residual = 0.0167504, Final residual = 0.00156291, No Iterations 5
GAMG:  Solving for p, Initial residual = 0.0246313, Final residual = 0.000915139, No Iterations 2
time step continuity errors : sum local = 0.00245311, global = -0.00039421, cumulative = 0.00668045
smoothSolver:  Solving for omega, Initial residual = 0.0286545, Final residual = 0.00282906, No Iterations 5
smoothSolver:  Solving for k, Initial residual = 0.138121, Final residual = 0.0100087, No Iterations 6
ExecutionTime = 0.17 s  ClockTime = 0 s

scalarTransport execute: age
smoothSolver:  Solving for age, Initial residual = 0.085993, Final residual = 0.00427394, No Iterations 3

Time = 12

smoothSolver:  Solving for Ux, Initial residual = 0.0300308, Final residual = 0.00210223, No Iterations 6
smoothSolver:  Solving for Uy, Initial residual = 0.0161716, Final residual = 0.00156333, No Iterations 5
GAMG:  Solving for p, Initial residual = 0.0215913, Final residual = 0.000927565, No Iterations 2
time step continuity errors : sum local = 0.00251395, global = -0.000283815, cumulative = 0.00639664
smoothSolver:  Solving for omega, Initial residual = 0.0245994, Final residual = 0.00157546, No Iterations 6
smoothSolver:  Solving for k, Initial residual = 0.124093, Final residual = 0.00913739, No Iterations 6
ExecutionTime = 0.18 s  ClockTime = 0 s

scalarTransport execute: age
smoothSolver:  Solving for age, Initial residual = 0.0772284, Final residual = 0.0073361, No Iterations 2

Time = 13

smoothSolver:  Solving for Ux, Initial residual = 0.0288749, Final residual = 0.00203818, No Iterations 6
smoothSolver:  Solving for Uy, Initial residual = 0.0159348, Final residual = 0.00105095, No Iterations 6
GAMG:  Solving for p, Initial residual = 0.0200579, Final residual = 0.000956897, No Iterations 2
time step continuity errors : sum local = 0.00261003, global = -0.000184914, cumulative = 0.00621173
smoothSolver:  Solving for omega, Initial residual = 0.0211213, Final residual = 0.00137644, No Iterations 6
smoothSolver:  Solving for k, Initial residual = 0.112282, Final residual = 0.00838452, No Iterations 6
ExecutionTime = 0.19 s  ClockTime = 0 s

scalarTransport execute: age
smoothSolver:  Solving for age, Initial residual = 0.0691748, Final residual = 0.00354646, No Iterations 3

Time = 14

smoothSolver:  Solving for Ux, Initial residual = 0.0279338, Final residual = 0.00198952, No Iterations 6
smoothSolver:  Solving for Uy, Initial residual = 0.0155755, Final residual = 0.00105196, No Iterations 6
GAMG:  Solving for p, Initial residual = 0.0188947, Final residual = 0.000938388, No Iterations 2
time step continuity errors : sum local = 0.00256875, global = -7.95682e-05, cumulative = 0.00613216
smoothSolver:  Solving for omega, Initial residual = 0.0183228, Final residual = 0.00121143, No Iterations 6
smoothSolver:  Solving for k, Initial residual = 0.102402, Final residual = 0.00773715, No Iterations 6
ExecutionTime = 0.2 s  ClockTime = 0 s

scalarTransport execute: age
smoothSolver:  Solving for age, Initial residual = 0.0615514, Final residual = 0.00588954, No Iterations 2

Time = 15

smoothSolver:  Solving for Ux, Initial residual = 0.0271493, Final residual = 0.00194439, No Iterations 6
smoothSolver:  Solving for Uy, Initial residual = 0.0153627, Final residual = 0.00105234, No Iterations 6
GAMG:  Solving for p, Initial residual = 0.0179307, Final residual = 0.000875439, No Iterations 2
time step continuity errors : sum local = 0.00240208, global = 1.81819e-05, cumulative = 0.00615034
smoothSolver:  Solving for omega, Initial residual = 0.0160598, Final residual = 0.00107397, No Iterations 6
smoothSolver:  Solving for k, Initial residual = 0.0939885, Final residual = 0.00717254, No Iterations 6
ExecutionTime = 0.22 s  ClockTime = 0 s

scalarTransport execute: age
smoothSolver:  Solving for age, Initial residual = 0.0552517, Final residual = 0.00303072, No Iterations 3

Time = 16

smoothSolver:  Solving for Ux, Initial residual = 0.0263822, Final residual = 0.00189652, No Iterations 6
smoothSolver:  Solving for Uy, Initial residual = 0.015125, Final residual = 0.00104625, No Iterations 6
GAMG:  Solving for p, Initial residual = 0.0171645, Final residual = 0.00081983, No Iterations 2
time step continuity errors : sum local = 0.00225045, global = 0.00010888, cumulative = 0.00625922
smoothSolver:  Solving for omega, Initial residual = 0.014188, Final residual = 0.000957994, No Iterations 6
smoothSolver:  Solving for k, Initial residual = 0.0867461, Final residual = 0.00667662, No Iterations 6
ExecutionTime = 0.23 s  ClockTime = 0 s

scalarTransport execute: age
smoothSolver:  Solving for age, Initial residual = 0.0487311, Final residual = 0.00278416, No Iterations 3

Time = 17

smoothSolver:  Solving for Ux, Initial residual = 0.0256331, Final residual = 0.00184969, No Iterations 6
smoothSolver:  Solving for Uy, Initial residual = 0.0149334, Final residual = 0.00103659, No Iterations 6
GAMG:  Solving for p, Initial residual = 0.016425, Final residual = 0.000778293, No Iterations 2
time step continuity errors : sum local = 0.00213444, global = 0.000173947, cumulative = 0.00643317
smoothSolver:  Solving for omega, Initial residual = 0.0126414, Final residual = 0.000859584, No Iterations 6
smoothSolver:  Solving for k, Initial residual = 0.0804594, Final residual = 0.00623803, No Iterations 6
ExecutionTime = 0.24 s  ClockTime = 0 s

scalarTransport execute: age
smoothSolver:  Solving for age, Initial residual = 0.0428476, Final residual = 0.00260994, No Iterations 3

Time = 18

smoothSolver:  Solving for Ux, Initial residual = 0.0249362, Final residual = 0.00180894, No Iterations 6
smoothSolver:  Solving for Uy, Initial residual = 0.014725, Final residual = 0.00102412, No Iterations 6
GAMG:  Solving for p, Initial residual = 0.0158385, Final residual = 0.000746081, No Iterations 2
time step continuity errors : sum local = 0.00204067, global = 0.000219438, cumulative = 0.0066526
smoothSolver:  Solving for omega, Initial residual = 0.011341, Final residual = 0.000775499, No Iterations 6
smoothSolver:  Solving for k, Initial residual = 0.0749578, Final residual = 0.00584831, No Iterations 6
ExecutionTime = 0.25 s  ClockTime = 0 s

scalarTransport execute: age
smoothSolver:  Solving for age, Initial residual = 0.0379251, Final residual = 0.00240349, No Iterations 3

Time = 19

smoothSolver:  Solving for Ux, Initial residual = 0.0242915, Final residual = 0.00177276, No Iterations 6
smoothSolver:  Solving for Uy, Initial residual = 0.0145213, Final residual = 0.00101077, No Iterations 6
GAMG:  Solving for p, Initial residual = 0.0153489, Final residual = 0.000732656, No Iterations 2
time step continuity errors : sum local = 0.00199564, global = 0.000246329, cumulative = 0.00689893
smoothSolver:  Solving for omega, Initial residual = 0.010237, Final residual = 0.000703031, No Iterations 6
smoothSolver:  Solving for k, Initial residual = 0.0701058, Final residual = 0.00549986, No Iterations 6
ExecutionTime = 0.26 s  ClockTime = 0 s

scalarTransport execute: age
smoothSolver:  Solving for age, Initial residual = 0.0339536, Final residual = 0.00232447, No Iterations 3

Time = 20

smoothSolver:  Solving for Ux, Initial residual = 0.0237498, Final residual = 0.00174092, No Iterations 6
smoothSolver:  Solving for Uy, Initial residual = 0.0142916, Final residual = 0.000997812, No Iterations 6
GAMG:  Solving for p, Initial residual = 0.0149045, Final residual = 0.000734394, No Iterations 2
time step continuity errors : sum local = 0.00198499, global = 0.000257097, cumulative = 0.00715603
smoothSolver:  Solving for omega, Initial residual = 0.00929103, Final residual = 0.000640116, No Iterations 6
smoothSolver:  Solving for k, Initial residual = 0.0658077, Final residual = 0.00518737, No Iterations 6
ExecutionTime = 0.27 s  ClockTime = 0 s

scalarTransport execute: age
smoothSolver:  Solving for age, Initial residual = 0.0305892, Final residual = 0.00228777, No Iterations 3

Time = 21

smoothSolver:  Solving for Ux, Initial residual = 0.0232769, Final residual = 0.00171313, No Iterations 6
smoothSolver:  Solving for Uy, Initial residual = 0.0140573, Final residual = 0.00098595, No Iterations 6
GAMG:  Solving for p, Initial residual = 0.0144856, Final residual = 0.000744767, No Iterations 2
time step continuity errors : sum local = 0.00199422, global = 0.000255978, cumulative = 0.00741201
smoothSolver:  Solving for omega, Initial residual = 0.00847107, Final residual = 0.000585145, No Iterations 6
smoothSolver:  Solving for k, Initial residual = 0.0619758, Final residual = 0.0049055, No Iterations 6
ExecutionTime = 0.28 s  ClockTime = 0 s

scalarTransport execute: age
smoothSolver:  Solving for age, Initial residual = 0.027726, Final residual = 0.00226362, No Iterations 3

Time = 22

smoothSolver:  Solving for Ux, Initial residual = 0.022857, Final residual = 0.00168846, No Iterations 6
smoothSolver:  Solving for Uy, Initial residual = 0.0137941, Final residual = 0.000972705, No Iterations 6
GAMG:  Solving for p, Initial residual = 0.0140105, Final residual = 0.000757918, No Iterations 2
time step continuity errors : sum local = 0.00201234, global = 0.000247647, cumulative = 0.00765965
smoothSolver:  Solving for omega, Initial residual = 0.00775433, Final residual = 0.00053688, No Iterations 6
smoothSolver:  Solving for k, Initial residual = 0.0585379, Final residual = 0.00465022, No Iterations 6
ExecutionTime = 0.3 s  ClockTime = 0 s

scalarTransport execute: age
smoothSolver:  Solving for age, Initial residual = 0.0253721, Final residual = 0.00225079, No Iterations 3

Time = 23

smoothSolver:  Solving for Ux, Initial residual = 0.0224689, Final residual = 0.001666, No Iterations 6
smoothSolver:  Solving for Uy, Initial residual = 0.0135536, Final residual = 0.000959075, No Iterations 6
GAMG:  Solving for p, Initial residual = 0.0134323, Final residual = 0.000775096, No Iterations 2
time step continuity errors : sum local = 0.00204486, global = 0.000237342, cumulative = 0.007897
smoothSolver:  Solving for omega, Initial residual = 0.00712757, Final residual = 0.000494347, No Iterations 6
smoothSolver:  Solving for k, Initial residual = 0.0554392, Final residual = 0.00441818, No Iterations 6
ExecutionTime = 0.31 s  ClockTime = 0 s

scalarTransport execute: age
smoothSolver:  Solving for age, Initial residual = 0.0235436, Final residual = 0.00230419, No Iterations 3

Time = 24

smoothSolver:  Solving for Ux, Initial residual = 0.0221288, Final residual = 0.00164604, No Iterations 6
smoothSolver:  Solving for Uy, Initial residual = 0.0132941, Final residual = 0.000944798, No Iterations 6
GAMG:  Solving for p, Initial residual = 0.0128752, Final residual = 0.000786235, No Iterations 2
time step continuity errors : sum local = 0.00206359, global = 0.000223141, cumulative = 0.00812014
smoothSolver:  Solving for omega, Initial residual = 0.00657308, Final residual = 0.000456577, No Iterations 6
smoothSolver:  Solving for k, Initial residual = 0.0526291, Final residual = 0.00420607, No Iterations 6
ExecutionTime = 0.32 s  ClockTime = 0 s

scalarTransport execute: age
smoothSolver:  Solving for age, Initial residual = 0.0220948, Final residual = 0.00181361, No Iterations 4

Time = 25

smoothSolver:  Solving for Ux, Initial residual = 0.0217809, Final residual = 0.00162788, No Iterations 6
smoothSolver:  Solving for Uy, Initial residual = 0.0130353, Final residual = 0.000929575, No Iterations 6
GAMG:  Solving for p, Initial residual = 0.0123078, Final residual = 0.000792597, No Iterations 2
time step continuity errors : sum local = 0.0020705, global = 0.000207146, cumulative = 0.00832728
smoothSolver:  Solving for omega, Initial residual = 0.00608305, Final residual = 0.000422946, No Iterations 6
smoothSolver:  Solving for k, Initial residual = 0.0500703, Final residual = 0.00401126, No Iterations 6
ExecutionTime = 0.33 s  ClockTime = 0 s

scalarTransport execute: age
smoothSolver:  Solving for age, Initial residual = 0.0206425, Final residual = 0.00176062, No Iterations 4

Time = 26

smoothSolver:  Solving for Ux, Initial residual = 0.0214794, Final residual = 0.00161221, No Iterations 6
smoothSolver:  Solving for Uy, Initial residual = 0.012784, Final residual = 0.000913651, No Iterations 6
GAMG:  Solving for p, Initial residual = 0.0118079, Final residual = 0.000790089, No Iterations 2
time step continuity errors : sum local = 0.00205583, global = 0.000191537, cumulative = 0.00851882
smoothSolver:  Solving for omega, Initial residual = 0.00564479, Final residual = 0.000392924, No Iterations 6
smoothSolver:  Solving for k, Initial residual = 0.0477289, Final residual = 0.00383172, No Iterations 6
ExecutionTime = 0.34 s  ClockTime = 0 s

scalarTransport execute: age
smoothSolver:  Solving for age, Initial residual = 0.0195556, Final residual = 0.00177967, No Iterations 4

Time = 27

smoothSolver:  Solving for Ux, Initial residual = 0.0212002, Final residual = 0.00159802, No Iterations 6
smoothSolver:  Solving for Uy, Initial residual = 0.0125662, Final residual = 0.000897716, No Iterations 6
GAMG:  Solving for p, Initial residual = 0.0116201, Final residual = 0.000778174, No Iterations 2
time step continuity errors : sum local = 0.00201651, global = 0.000173331, cumulative = 0.00869215
smoothSolver:  Solving for omega, Initial residual = 0.00525563, Final residual = 0.000366204, No Iterations 6
smoothSolver:  Solving for k, Initial residual = 0.0455764, Final residual = 0.00366563, No Iterations 6
ExecutionTime = 0.34 s  ClockTime = 0 s

scalarTransport execute: age
smoothSolver:  Solving for age, Initial residual = 0.01889, Final residual = 0.00186724, No Iterations 4

Time = 28

smoothSolver:  Solving for Ux, Initial residual = 0.0209512, Final residual = 0.00158605, No Iterations 6
smoothSolver:  Solving for Uy, Initial residual = 0.0123666, Final residual = 0.000881439, No Iterations 6
GAMG:  Solving for p, Initial residual = 0.0118048, Final residual = 0.00076067, No Iterations 2
time step continuity errors : sum local = 0.00196375, global = 0.000158367, cumulative = 0.00885052
smoothSolver:  Solving for omega, Initial residual = 0.00491215, Final residual = 0.000342281, No Iterations 6
smoothSolver:  Solving for k, Initial residual = 0.0435923, Final residual = 0.00351157, No Iterations 6
ExecutionTime = 0.35 s  ClockTime = 0 s

scalarTransport execute: age
smoothSolver:  Solving for age, Initial residual = 0.0186323, Final residual = 0.00155029, No Iterations 5

Time = 29

smoothSolver:  Solving for Ux, Initial residual = 0.0207695, Final residual = 0.00157714, No Iterations 6
smoothSolver:  Solving for Uy, Initial residual = 0.0121806, Final residual = 0.000865407, No Iterations 6
GAMG:  Solving for p, Initial residual = 0.0121036, Final residual = 0.000746689, No Iterations 2
time step continuity errors : sum local = 0.0019213, global = 0.000148622, cumulative = 0.00899914
smoothSolver:  Solving for omega, Initial residual = 0.00460355, Final residual = 0.000320561, No Iterations 6
smoothSolver:  Solving for k, Initial residual = 0.041749, Final residual = 0.00336781, No Iterations 6
ExecutionTime = 0.36 s  ClockTime = 0 s

scalarTransport execute: age
smoothSolver:  Solving for age, Initial residual = 0.0185489, Final residual = 0.00155345, No Iterations 5

Time = 30

smoothSolver:  Solving for Ux, Initial residual = 0.0206624, Final residual = 0.00157093, No Iterations 6
smoothSolver:  Solving for Uy, Initial residual = 0.0119742, Final residual = 0.000848803, No Iterations 6
GAMG:  Solving for p, Initial residual = 0.0123806, Final residual = 0.000749706, No Iterations 2
time step continuity errors : sum local = 0.00191896, global = 0.000142995, cumulative = 0.00914213
smoothSolver:  Solving for omega, Initial residual = 0.00432645, Final residual = 0.000300722, No Iterations 6
smoothSolver:  Solving for k, Initial residual = 0.04003, Final residual = 0.00323297, No Iterations 6
ExecutionTime = 0.39 s  ClockTime = 0 s

scalarTransport execute: age
smoothSolver:  Solving for age, Initial residual = 0.0184023, Final residual = 0.00158485, No Iterations 5

Time = 31

smoothSolver:  Solving for Ux, Initial residual = 0.0205938, Final residual = 0.00156584, No Iterations 6
smoothSolver:  Solving for Uy, Initial residual = 0.0117316, Final residual = 0.000830564, No Iterations 6
GAMG:  Solving for p, Initial residual = 0.0124509, Final residual = 0.000776578, No Iterations 2
time step continuity errors : sum local = 0.00197711, global = 0.000139168, cumulative = 0.0092813
smoothSolver:  Solving for omega, Initial residual = 0.00407176, Final residual = 0.000282518, No Iterations 6
smoothSolver:  Solving for k, Initial residual = 0.0384261, Final residual = 0.0031065, No Iterations 6
ExecutionTime = 0.4 s  ClockTime = 0 s

scalarTransport execute: age
smoothSolver:  Solving for age, Initial residual = 0.0183155, Final residual = 0.00165499, No Iterations 5

Time = 32

smoothSolver:  Solving for Ux, Initial residual = 0.0205592, Final residual = 0.00156128, No Iterations 6
smoothSolver:  Solving for Uy, Initial residual = 0.0114446, Final residual = 0.000810217, No Iterations 6
GAMG:  Solving for p, Initial residual = 0.0122539, Final residual = 0.000795881, No Iterations 2
time step continuity errors : sum local = 0.00201709, global = 0.000135976, cumulative = 0.00941728
smoothSolver:  Solving for omega, Initial residual = 0.00383909, Final residual = 0.000265777, No Iterations 6
smoothSolver:  Solving for k, Initial residual = 0.0369262, Final residual = 0.00298788, No Iterations 6
ExecutionTime = 0.41 s  ClockTime = 0 s

scalarTransport execute: age
smoothSolver:  Solving for age, Initial residual = 0.0183274, Final residual = 0.00175596, No Iterations 5

Time = 33

smoothSolver:  Solving for Ux, Initial residual = 0.0205157, Final residual = 0.00155692, No Iterations 6
smoothSolver:  Solving for Uy, Initial residual = 0.0111137, Final residual = 0.000787404, No Iterations 6
GAMG:  Solving for p, Initial residual = 0.0118201, Final residual = 0.000797369, No Iterations 2
time step continuity errors : sum local = 0.0020136, global = 0.000132489, cumulative = 0.00954977
smoothSolver:  Solving for omega, Initial residual = 0.00362645, Final residual = 0.000250302, No Iterations 6
smoothSolver:  Solving for k, Initial residual = 0.0355191, Final residual = 0.00287642, No Iterations 6
ExecutionTime = 0.42 s  ClockTime = 0 s

scalarTransport execute: age
smoothSolver:  Solving for age, Initial residual = 0.0183418, Final residual = 0.00147358, No Iterations 6

Time = 34

smoothSolver:  Solving for Ux, Initial residual = 0.0204747, Final residual = 0.00155093, No Iterations 6
smoothSolver:  Solving for Uy, Initial residual = 0.0107424, Final residual = 0.000763305, No Iterations 6
GAMG:  Solving for p, Initial residual = 0.0112137, Final residual = 0.000783243, No Iterations 2
time step continuity errors : sum local = 0.00197152, global = 0.000127733, cumulative = 0.0096775
smoothSolver:  Solving for omega, Initial residual = 0.00343078, Final residual = 0.00023594, No Iterations 6
smoothSolver:  Solving for k, Initial residual = 0.0342001, Final residual = 0.00277189, No Iterations 6
ExecutionTime = 0.43 s  ClockTime = 0 s

scalarTransport execute: age
smoothSolver:  Solving for age, Initial residual = 0.0182149, Final residual = 0.00149147, No Iterations 6

Time = 35

smoothSolver:  Solving for Ux, Initial residual = 0.0203926, Final residual = 0.00154507, No Iterations 6
smoothSolver:  Solving for Uy, Initial residual = 0.0103551, Final residual = 0.000739315, No Iterations 6
GAMG:  Solving for p, Initial residual = 0.0106298, Final residual = 0.000774591, No Iterations 2
time step continuity errors : sum local = 0.00194521, global = 0.000117248, cumulative = 0.00979475
smoothSolver:  Solving for omega, Initial residual = 0.00324981, Final residual = 0.000222591, No Iterations 6
smoothSolver:  Solving for k, Initial residual = 0.0329582, Final residual = 0.00267374, No Iterations 6
ExecutionTime = 0.44 s  ClockTime = 0 s

scalarTransport execute: age
smoothSolver:  Solving for age, Initial residual = 0.0180671, Final residual = 0.00153259, No Iterations 6

Time = 36

smoothSolver:  Solving for Ux, Initial residual = 0.0203084, Final residual = 0.00153728, No Iterations 6
smoothSolver:  Solving for Uy, Initial residual = 0.00998157, Final residual = 0.000716967, No Iterations 6
GAMG:  Solving for p, Initial residual = 0.010191, Final residual = 0.00078008, No Iterations 2
time step continuity errors : sum local = 0.0019573, global = 0.000105403, cumulative = 0.00990015
smoothSolver:  Solving for omega, Initial residual = 0.00307896, Final residual = 0.000210146, No Iterations 6
smoothSolver:  Solving for k, Initial residual = 0.0317931, Final residual = 0.00258193, No Iterations 6
ExecutionTime = 0.46 s  ClockTime = 0 s

scalarTransport execute: age
smoothSolver:  Solving for age, Initial residual = 0.0190504, Final residual = 0.00158585, No Iterations 6

Time = 37

smoothSolver:  Solving for Ux, Initial residual = 0.0202103, Final residual = 0.0015291, No Iterations 6
smoothSolver:  Solving for Uy, Initial residual = 0.0096769, Final residual = 0.000698237, No Iterations 6
GAMG:  Solving for p, Initial residual = 0.00971218, Final residual = 0.00082407, No Iterations 2
time step continuity errors : sum local = 0.00205648, global = 9.59426e-05, cumulative = 0.00999609
smoothSolver:  Solving for omega, Initial residual = 0.00292167, Final residual = 0.000198538, No Iterations 6
smoothSolver:  Solving for k, Initial residual = 0.0307025, Final residual = 0.00249612, No Iterations 6
ExecutionTime = 0.47 s  ClockTime = 0 s

scalarTransport execute: age
smoothSolver:  Solving for age, Initial residual = 0.0186255, Final residual = 0.00165094, No Iterations 6

Time = 38

smoothSolver:  Solving for Ux, Initial residual = 0.0201165, Final residual = 0.00151961, No Iterations 6
smoothSolver:  Solving for Uy, Initial residual = 0.00941458, Final residual = 0.000682219, No Iterations 6
GAMG:  Solving for p, Initial residual = 0.00948167, Final residual = 0.000893507, No Iterations 2
time step continuity errors : sum local = 0.00222447, global = 8.8415e-05, cumulative = 0.0100845
smoothSolver:  Solving for omega, Initial residual = 0.00277529, Final residual = 0.000187704, No Iterations 6
smoothSolver:  Solving for k, Initial residual = 0.0296834, Final residual = 0.00241593, No Iterations 6
ExecutionTime = 0.48 s  ClockTime = 0 s

scalarTransport execute: age
smoothSolver:  Solving for age, Initial residual = 0.0183574, Final residual = 0.00172132, No Iterations 6

Time = 39

smoothSolver:  Solving for Ux, Initial residual = 0.0200349, Final residual = 0.0015087, No Iterations 6
smoothSolver:  Solving for Uy, Initial residual = 0.00917429, Final residual = 0.000667916, No Iterations 6
GAMG:  Solving for p, Initial residual = 0.00935177, Final residual = 0.000655359, No Iterations 3
time step continuity errors : sum local = 0.0016273, global = 8.97015e-05, cumulative = 0.0101742
smoothSolver:  Solving for omega, Initial residual = 0.00265559, Final residual = 0.000177949, No Iterations 6
smoothSolver:  Solving for k, Initial residual = 0.0287304, Final residual = 0.002341, No Iterations 6
ExecutionTime = 0.49 s  ClockTime = 0 s

scalarTransport execute: age
smoothSolver:  Solving for age, Initial residual = 0.0184683, Final residual = 0.00157244, No Iterations 7

Time = 40

smoothSolver:  Solving for Ux, Initial residual = 0.0201108, Final residual = 0.00150722, No Iterations 6
smoothSolver:  Solving for Uy, Initial residual = 0.00908107, Final residual = 0.000662364, No Iterations 6
GAMG:  Solving for p, Initial residual = 0.00923797, Final residual = 0.00080053, No Iterations 2
time step continuity errors : sum local = 0.00197805, global = 7.84078e-05, cumulative = 0.0102526
smoothSolver:  Solving for omega, Initial residual = 0.00250275, Final residual = 0.00016812, No Iterations 6
smoothSolver:  Solving for k, Initial residual = 0.0278397, Final residual = 0.00227075, No Iterations 6
ExecutionTime = 0.5 s  ClockTime = 0 s

scalarTransport execute: age
smoothSolver:  Solving for age, Initial residual = 0.0183582, Final residual = 0.00157091, No Iterations 7

Time = 41

smoothSolver:  Solving for Ux, Initial residual = 0.0198854, Final residual = 0.00149227, No Iterations 6
smoothSolver:  Solving for Uy, Initial residual = 0.00876907, Final residual = 0.000645458, No Iterations 6
GAMG:  Solving for p, Initial residual = 0.00910286, Final residual = 0.000539959, No Iterations 3
time step continuity errors : sum local = 0.00133288, global = 8.04816e-05, cumulative = 0.0103331
smoothSolver:  Solving for omega, Initial residual = 0.00238274, Final residual = 0.000159308, No Iterations 6
smoothSolver:  Solving for k, Initial residual = 0.0270098, Final residual = 0.00220478, No Iterations 6
ExecutionTime = 0.52 s  ClockTime = 0 s

scalarTransport execute: age
smoothSolver:  Solving for age, Initial residual = 0.018329, Final residual = 0.00163915, No Iterations 7

Time = 42

smoothSolver:  Solving for Ux, Initial residual = 0.0197507, Final residual = 0.0014716, No Iterations 6
smoothSolver:  Solving for Uy, Initial residual = 0.00860708, Final residual = 0.000634523, No Iterations 6
GAMG:  Solving for p, Initial residual = 0.00881582, Final residual = 0.000861595, No Iterations 2
time step continuity errors : sum local = 0.00212732, global = 6.89307e-05, cumulative = 0.010402
smoothSolver:  Solving for omega, Initial residual = 0.00226874, Final residual = 0.000150988, No Iterations 6
smoothSolver:  Solving for k, Initial residual = 0.0262292, Final residual = 0.00214237, No Iterations 6
ExecutionTime = 0.53 s  ClockTime = 0 s

scalarTransport execute: age
smoothSolver:  Solving for age, Initial residual = 0.0182639, Final residual = 0.0016858, No Iterations 7

Time = 43

smoothSolver:  Solving for Ux, Initial residual = 0.0194997, Final residual = 0.00145354, No Iterations 6
smoothSolver:  Solving for Uy, Initial residual = 0.00842991, Final residual = 0.000623695, No Iterations 6
GAMG:  Solving for p, Initial residual = 0.00883404, Final residual = 0.000654205, No Iterations 3
time step continuity errors : sum local = 0.00161306, global = 8.08464e-05, cumulative = 0.0104829
smoothSolver:  Solving for omega, Initial residual = 0.0021642, Final residual = 0.000143103, No Iterations 6
smoothSolver:  Solving for k, Initial residual = 0.0255055, Final residual = 0.00208352, No Iterations 6
ExecutionTime = 0.54 s  ClockTime = 0 s

scalarTransport execute: age
smoothSolver:  Solving for age, Initial residual = 0.0184201, Final residual = 0.001764, No Iterations 7

Time = 44

smoothSolver:  Solving for Ux, Initial residual = 0.0194104, Final residual = 0.0014348, No Iterations 6
smoothSolver:  Solving for Uy, Initial residual = 0.00844089, Final residual = 0.000628972, No Iterations 6
GAMG:  Solving for p, Initial residual = 0.00862091, Final residual = 0.000540251, No Iterations 3
time step continuity errors : sum local = 0.00133035, global = 7.43551e-05, cumulative = 0.0105572
smoothSolver:  Solving for omega, Initial residual = 0.00207255, Final residual = 0.000135736, No Iterations 6
smoothSolver:  Solving for k, Initial residual = 0.0248193, Final residual = 0.00202776, No Iterations 6
ExecutionTime = 0.55 s  ClockTime = 0 s

scalarTransport execute: age
smoothSolver:  Solving for age, Initial residual = 0.0185827, Final residual = 0.00159087, No Iterations 8

Time = 45

smoothSolver:  Solving for Ux, Initial residual = 0.019284, Final residual = 0.0014259, No Iterations 6
smoothSolver:  Solving for Uy, Initial residual = 0.00839321, Final residual = 0.00062724, No Iterations 6
GAMG:  Solving for p, Initial residual = 0.00834844, Final residual = 0.000526285, No Iterations 3
time step continuity errors : sum local = 0.00129105, global = 6.74709e-05, cumulative = 0.0106247
smoothSolver:  Solving for omega, Initial residual = 0.00196852, Final residual = 0.000128793, No Iterations 6
smoothSolver:  Solving for k, Initial residual = 0.0241731, Final residual = 0.00197511, No Iterations 6
ExecutionTime = 0.56 s  ClockTime = 0 s

scalarTransport execute: age
smoothSolver:  Solving for age, Initial residual = 0.0185644, Final residual = 0.00163289, No Iterations 8

Time = 46

smoothSolver:  Solving for Ux, Initial residual = 0.0191201, Final residual = 0.00141434, No Iterations 6
smoothSolver:  Solving for Uy, Initial residual = 0.00832806, Final residual = 0.000625903, No Iterations 6
GAMG:  Solving for p, Initial residual = 0.00811936, Final residual = 0.000515584, No Iterations 3
time step continuity errors : sum local = 0.00126132, global = 6.46174e-05, cumulative = 0.0106893
smoothSolver:  Solving for omega, Initial residual = 0.00187786, Final residual = 0.000122373, No Iterations 6
smoothSolver:  Solving for k, Initial residual = 0.0235628, Final residual = 0.00192516, No Iterations 6
ExecutionTime = 0.58 s  ClockTime = 0 s

scalarTransport execute: age
smoothSolver:  Solving for age, Initial residual = 0.0187115, Final residual = 0.00171686, No Iterations 8

Time = 47

smoothSolver:  Solving for Ux, Initial residual = 0.0189353, Final residual = 0.00139963, No Iterations 6
smoothSolver:  Solving for Uy, Initial residual = 0.00827917, Final residual = 0.000625495, No Iterations 6
GAMG:  Solving for p, Initial residual = 0.00788444, Final residual = 0.000528447, No Iterations 3
time step continuity errors : sum local = 0.00128937, global = 6.38284e-05, cumulative = 0.0107531
smoothSolver:  Solving for omega, Initial residual = 0.00179595, Final residual = 0.000179222, No Iterations 5
smoothSolver:  Solving for k, Initial residual = 0.0229984, Final residual = 0.00187871, No Iterations 6
ExecutionTime = 0.59 s  ClockTime = 0 s

scalarTransport execute: age
smoothSolver:  Solving for age, Initial residual = 0.0189933, Final residual = 0.00180767, No Iterations 8

Time = 48

smoothSolver:  Solving for Ux, Initial residual = 0.0187445, Final residual = 0.00138445, No Iterations 6
smoothSolver:  Solving for Uy, Initial residual = 0.00826573, Final residual = 0.000628524, No Iterations 6
GAMG:  Solving for p, Initial residual = 0.00766591, Final residual = 0.000530161, No Iterations 3
time step continuity errors : sum local = 0.00128973, global = 6.78169e-05, cumulative = 0.010821
smoothSolver:  Solving for omega, Initial residual = 0.0017261, Final residual = 0.000171192, No Iterations 5
smoothSolver:  Solving for k, Initial residual = 0.0224704, Final residual = 0.00183499, No Iterations 6
ExecutionTime = 0.6 s  ClockTime = 0 s

scalarTransport execute: age
smoothSolver:  Solving for age, Initial residual = 0.0190947, Final residual = 0.00186726, No Iterations 8

Time = 49

smoothSolver:  Solving for Ux, Initial residual = 0.018541, Final residual = 0.00136843, No Iterations 6
smoothSolver:  Solving for Uy, Initial residual = 0.00827872, Final residual = 0.000633081, No Iterations 6
GAMG:  Solving for p, Initial residual = 0.00741268, Final residual = 0.000525269, No Iterations 3
time step continuity errors : sum local = 0.00127437, global = 7.03542e-05, cumulative = 0.0108913
smoothSolver:  Solving for omega, Initial residual = 0.00166195, Final residual = 0.000163609, No Iterations 5
smoothSolver:  Solving for k, Initial residual = 0.0219673, Final residual = 0.00179312, No Iterations 6
ExecutionTime = 0.61 s  ClockTime = 0 s

scalarTransport execute: age
smoothSolver:  Solving for age, Initial residual = 0.0191782, Final residual = 0.00191007, No Iterations 8

Time = 50

smoothSolver:  Solving for Ux, Initial residual = 0.0183495, Final residual = 0.00135422, No Iterations 6
smoothSolver:  Solving for Uy, Initial residual = 0.00828796, Final residual = 0.000637005, No Iterations 6
GAMG:  Solving for p, Initial residual = 0.00717136, Final residual = 0.000512177, No Iterations 3
time step continuity errors : sum local = 0.00123825, global = 7.0376e-05, cumulative = 0.0109617
smoothSolver:  Solving for omega, Initial residual = 0.00159755, Final residual = 0.000156426, No Iterations 5
smoothSolver:  Solving for k, Initial residual = 0.0214847, Final residual = 0.0017529, No Iterations 6
ExecutionTime = 0.62 s  ClockTime = 0 s

scalarTransport execute: age
smoothSolver:  Solving for age, Initial residual = 0.0192174, Final residual = 0.00165055, No Iterations 9

Time = 51

smoothSolver:  Solving for Ux, Initial residual = 0.0181382, Final residual = 0.00133941, No Iterations 6
smoothSolver:  Solving for Uy, Initial residual = 0.00830346, Final residual = 0.000641307, No Iterations 6
GAMG:  Solving for p, Initial residual = 0.0069514, Final residual = 0.00051048, No Iterations 3
time step continuity errors : sum local = 0.00122998, global = 7.18492e-05, cumulative = 0.0110335
smoothSolver:  Solving for omega, Initial residual = 0.00153539, Final residual = 0.000149613, No Iterations 5
smoothSolver:  Solving for k, Initial residual = 0.0210221, Final residual = 0.00171416, No Iterations 6
ExecutionTime = 0.63 s  ClockTime = 0 s

scalarTransport execute: age
smoothSolver:  Solving for age, Initial residual = 0.0190839, Final residual = 0.00189205, No Iterations 8

Time = 52

smoothSolver:  Solving for Ux, Initial residual = 0.0179027, Final residual = 0.00132315, No Iterations 6
smoothSolver:  Solving for Uy, Initial residual = 0.00833031, Final residual = 0.000646891, No Iterations 6
GAMG:  Solving for p, Initial residual = 0.00676715, Final residual = 0.000504355, No Iterations 3
time step continuity errors : sum local = 0.00121146, global = 7.51037e-05, cumulative = 0.0111086
smoothSolver:  Solving for omega, Initial residual = 0.0014789, Final residual = 0.000143151, No Iterations 5
smoothSolver:  Solving for k, Initial residual = 0.0205784, Final residual = 0.00167686, No Iterations 6
ExecutionTime = 0.65 s  ClockTime = 0 s

scalarTransport execute: age
smoothSolver:  Solving for age, Initial residual = 0.0191065, Final residual = 0.00187262, No Iterations 8

Time = 53

smoothSolver:  Solving for Ux, Initial residual = 0.0176673, Final residual = 0.00130688, No Iterations 6
smoothSolver:  Solving for Uy, Initial residual = 0.00835302, Final residual = 0.000651987, No Iterations 6
GAMG:  Solving for p, Initial residual = 0.00660854, Final residual = 0.00050515, No Iterations 3
time step continuity errors : sum local = 0.00120932, global = 7.721e-05, cumulative = 0.0111859
smoothSolver:  Solving for omega, Initial residual = 0.0014341, Final residual = 0.000136801, No Iterations 5
smoothSolver:  Solving for k, Initial residual = 0.0201542, Final residual = 0.00164093, No Iterations 6
ExecutionTime = 0.66 s  ClockTime = 0 s

scalarTransport execute: age
smoothSolver:  Solving for age, Initial residual = 0.0190258, Final residual = 0.00182415, No Iterations 8

Time = 54

smoothSolver:  Solving for Ux, Initial residual = 0.0174311, Final residual = 0.00129036, No Iterations 6
smoothSolver:  Solving for Uy, Initial residual = 0.00838307, Final residual = 0.000656864, No Iterations 6
GAMG:  Solving for p, Initial residual = 0.00648659, Final residual = 0.000506061, No Iterations 3
time step continuity errors : sum local = 0.00120745, global = 7.81107e-05, cumulative = 0.011264
smoothSolver:  Solving for omega, Initial residual = 0.00138619, Final residual = 0.000130984, No Iterations 5
smoothSolver:  Solving for k, Initial residual = 0.0197431, Final residual = 0.00160608, No Iterations 6
ExecutionTime = 0.67 s  ClockTime = 0 s

scalarTransport execute: age
smoothSolver:  Solving for age, Initial residual = 0.0189186, Final residual = 0.00177543, No Iterations 8

Time = 55

smoothSolver:  Solving for Ux, Initial residual = 0.0172062, Final residual = 0.00127374, No Iterations 6
smoothSolver:  Solving for Uy, Initial residual = 0.00841033, Final residual = 0.000660902, No Iterations 6
GAMG:  Solving for p, Initial residual = 0.00640461, Final residual = 0.00051007, No Iterations 3
time step continuity errors : sum local = 0.00121245, global = 7.84922e-05, cumulative = 0.0113425
smoothSolver:  Solving for omega, Initial residual = 0.00133876, Final residual = 0.000125496, No Iterations 5
smoothSolver:  Solving for k, Initial residual = 0.0193443, Final residual = 0.00157224, No Iterations 6
ExecutionTime = 0.68 s  ClockTime = 0 s

scalarTransport execute: age
smoothSolver:  Solving for age, Initial residual = 0.0188533, Final residual = 0.00173088, No Iterations 8

Time = 56

smoothSolver:  Solving for Ux, Initial residual = 0.0169949, Final residual = 0.00125714, No Iterations 6
smoothSolver:  Solving for Uy, Initial residual = 0.00843685, Final residual = 0.000663917, No Iterations 6
GAMG:  Solving for p, Initial residual = 0.00638538, Final residual = 0.000513602, No Iterations 3
time step continuity errors : sum local = 0.001216, global = 7.83578e-05, cumulative = 0.0114208
smoothSolver:  Solving for omega, Initial residual = 0.00129832, Final residual = 0.000120011, No Iterations 5
smoothSolver:  Solving for k, Initial residual = 0.0189593, Final residual = 0.00153944, No Iterations 6
ExecutionTime = 0.69 s  ClockTime = 0 s

scalarTransport execute: age
smoothSolver:  Solving for age, Initial residual = 0.0188437, Final residual = 0.0017054, No Iterations 8

Time = 57

smoothSolver:  Solving for Ux, Initial residual = 0.0167987, Final residual = 0.00124105, No Iterations 6
smoothSolver:  Solving for Uy, Initial residual = 0.00844883, Final residual = 0.000665668, No Iterations 6
GAMG:  Solving for p, Initial residual = 0.00643715, Final residual = 0.000518478, No Iterations 3
time step continuity errors : sum local = 0.00122351, global = 7.7766e-05, cumulative = 0.0114986
smoothSolver:  Solving for omega, Initial residual = 0.00125901, Final residual = 0.000115126, No Iterations 5
smoothSolver:  Solving for k, Initial residual = 0.0185836, Final residual = 0.00150744, No Iterations 6
ExecutionTime = 0.71 s  ClockTime = 0 s

scalarTransport execute: age
smoothSolver:  Solving for age, Initial residual = 0.0190294, Final residual = 0.0017561, No Iterations 8

Time = 58

smoothSolver:  Solving for Ux, Initial residual = 0.0166197, Final residual = 0.00122552, No Iterations 6
smoothSolver:  Solving for Uy, Initial residual = 0.0084497, Final residual = 0.000666032, No Iterations 6
GAMG:  Solving for p, Initial residual = 0.00641494, Final residual = 0.000520023, No Iterations 3
time step continuity errors : sum local = 0.00122108, global = 7.68377e-05, cumulative = 0.0115754
smoothSolver:  Solving for omega, Initial residual = 0.00122317, Final residual = 0.000110592, No Iterations 5
smoothSolver:  Solving for k, Initial residual = 0.0182164, Final residual = 0.00147617, No Iterations 6
ExecutionTime = 0.72 s  ClockTime = 0 s

scalarTransport execute: age
smoothSolver:  Solving for age, Initial residual = 0.0191742, Final residual = 0.00182418, No Iterations 8

Time = 59

smoothSolver:  Solving for Ux, Initial residual = 0.0164454, Final residual = 0.00121068, No Iterations 6
smoothSolver:  Solving for Uy, Initial residual = 0.00843775, Final residual = 0.000665049, No Iterations 6
GAMG:  Solving for p, Initial residual = 0.00641218, Final residual = 0.000526487, No Iterations 3
time step continuity errors : sum local = 0.00123042, global = 7.72637e-05, cumulative = 0.0116527
smoothSolver:  Solving for omega, Initial residual = 0.00119116, Final residual = 0.000106296, No Iterations 5
smoothSolver:  Solving for k, Initial residual = 0.0178585, Final residual = 0.00144554, No Iterations 6
ExecutionTime = 0.73 s  ClockTime = 0 s

scalarTransport execute: age
smoothSolver:  Solving for age, Initial residual = 0.0193274, Final residual = 0.00189404, No Iterations 8

Time = 60

smoothSolver:  Solving for Ux, Initial residual = 0.0162755, Final residual = 0.00119638, No Iterations 6
smoothSolver:  Solving for Uy, Initial residual = 0.00840881, Final residual = 0.000662502, No Iterations 6
GAMG:  Solving for p, Initial residual = 0.00641943, Final residual = 0.000522129, No Iterations 3
time step continuity errors : sum local = 0.00121436, global = 7.24196e-05, cumulative = 0.0117251
smoothSolver:  Solving for omega, Initial residual = 0.00115968, Final residual = 0.000102153, No Iterations 5
smoothSolver:  Solving for k, Initial residual = 0.0175067, Final residual = 0.00141555, No Iterations 6
ExecutionTime = 0.74 s  ClockTime = 0 s

scalarTransport execute: age
smoothSolver:  Solving for age, Initial residual = 0.0193933, Final residual = 0.00168531, No Iterations 9

Time = 61

smoothSolver:  Solving for Ux, Initial residual = 0.0161222, Final residual = 0.00118352, No Iterations 6
smoothSolver:  Solving for Uy, Initial residual = 0.00834826, Final residual = 0.000656965, No Iterations 6
GAMG:  Solving for p, Initial residual = 0.0064442, Final residual = 0.000532734, No Iterations 3
time step continuity errors : sum local = 0.00123308, global = 6.65924e-05, cumulative = 0.0117917
smoothSolver:  Solving for omega, Initial residual = 0.00112786, Final residual = 9.82163e-05, No Iterations 5
smoothSolver:  Solving for k, Initial residual = 0.0171608, Final residual = 0.00138611, No Iterations 6
ExecutionTime = 0.75 s  ClockTime = 0 s

scalarTransport execute: age
smoothSolver:  Solving for age, Initial residual = 0.0194227, Final residual = 0.00172892, No Iterations 9

Time = 62

smoothSolver:  Solving for Ux, Initial residual = 0.0159605, Final residual = 0.00117041, No Iterations 6
smoothSolver:  Solving for Uy, Initial residual = 0.00828349, Final residual = 0.000651408, No Iterations 6
GAMG:  Solving for p, Initial residual = 0.00648208, Final residual = 0.000532995, No Iterations 3
time step continuity errors : sum local = 0.00122885, global = 6.37858e-05, cumulative = 0.0118555
smoothSolver:  Solving for omega, Initial residual = 0.00109931, Final residual = 9.46138e-05, No Iterations 5
smoothSolver:  Solving for k, Initial residual = 0.0168207, Final residual = 0.00135718, No Iterations 6
ExecutionTime = 0.77 s  ClockTime = 0 s

scalarTransport execute: age
smoothSolver:  Solving for age, Initial residual = 0.0192115, Final residual = 0.00174896, No Iterations 9

Time = 63

smoothSolver:  Solving for Ux, Initial residual = 0.0157874, Final residual = 0.00115686, No Iterations 6
smoothSolver:  Solving for Uy, Initial residual = 0.00820623, Final residual = 0.000644819, No Iterations 6
GAMG:  Solving for p, Initial residual = 0.00651905, Final residual = 0.000543052, No Iterations 3
time step continuity errors : sum local = 0.00124766, global = 6.21704e-05, cumulative = 0.0119177
smoothSolver:  Solving for omega, Initial residual = 0.00107374, Final residual = 9.12726e-05, No Iterations 5
smoothSolver:  Solving for k, Initial residual = 0.0164864, Final residual = 0.00132867, No Iterations 6
ExecutionTime = 0.78 s  ClockTime = 0 s

scalarTransport execute: age
smoothSolver:  Solving for age, Initial residual = 0.0190237, Final residual = 0.00176073, No Iterations 9

Time = 64

smoothSolver:  Solving for Ux, Initial residual = 0.0156181, Final residual = 0.0011433, No Iterations 6
smoothSolver:  Solving for Uy, Initial residual = 0.00811303, Final residual = 0.00063703, No Iterations 6
GAMG:  Solving for p, Initial residual = 0.00658929, Final residual = 0.00054105, No Iterations 3
time step continuity errors : sum local = 0.00123919, global = 6.16678e-05, cumulative = 0.0119793
smoothSolver:  Solving for omega, Initial residual = 0.00105019, Final residual = 8.81703e-05, No Iterations 5
smoothSolver:  Solving for k, Initial residual = 0.0161578, Final residual = 0.00130053, No Iterations 6
ExecutionTime = 0.79 s  ClockTime = 0 s

scalarTransport execute: age
smoothSolver:  Solving for age, Initial residual = 0.0188784, Final residual = 0.00177166, No Iterations 9

Time = 65

smoothSolver:  Solving for Ux, Initial residual = 0.0154476, Final residual = 0.0011298, No Iterations 6
smoothSolver:  Solving for Uy, Initial residual = 0.00800488, Final residual = 0.00062779, No Iterations 6
GAMG:  Solving for p, Initial residual = 0.00663874, Final residual = 0.000546014, No Iterations 3
time step continuity errors : sum local = 0.00124636, global = 6.18296e-05, cumulative = 0.0120412
smoothSolver:  Solving for omega, Initial residual = 0.00102775, Final residual = 8.52794e-05, No Iterations 5
smoothSolver:  Solving for k, Initial residual = 0.0158321, Final residual = 0.00127273, No Iterations 6
ExecutionTime = 0.8 s  ClockTime = 0 s

scalarTransport execute: age
smoothSolver:  Solving for age, Initial residual = 0.0185643, Final residual = 0.00177236, No Iterations 9

Time = 66

smoothSolver:  Solving for Ux, Initial residual = 0.0152732, Final residual = 0.00111643, No Iterations 6
smoothSolver:  Solving for Uy, Initial residual = 0.00787985, Final residual = 0.000617245, No Iterations 6
GAMG:  Solving for p, Initial residual = 0.00670988, Final residual = 0.000542298, No Iterations 3
time step continuity errors : sum local = 0.00123379, global = 6.24944e-05, cumulative = 0.0121036
smoothSolver:  Solving for omega, Initial residual = 0.00100743, Final residual = 8.25735e-05, No Iterations 5
smoothSolver:  Solving for k, Initial residual = 0.0155103, Final residual = 0.00124524, No Iterations 6
ExecutionTime = 0.81 s  ClockTime = 0 s

scalarTransport execute: age
smoothSolver:  Solving for age, Initial residual = 0.0183317, Final residual = 0.00176153, No Iterations 9

Time = 67

smoothSolver:  Solving for Ux, Initial residual = 0.0150967, Final residual = 0.00110307, No Iterations 6
smoothSolver:  Solving for Uy, Initial residual = 0.00774004, Final residual = 0.000605464, No Iterations 6
GAMG:  Solving for p, Initial residual = 0.00679853, Final residual = 0.000543487, No Iterations 3
time step continuity errors : sum local = 0.00123254, global = 6.32698e-05, cumulative = 0.0121669
smoothSolver:  Solving for omega, Initial residual = 0.000988374, Final residual = 8.00578e-05, No Iterations 5
smoothSolver:  Solving for k, Initial residual = 0.0151909, Final residual = 0.00121794, No Iterations 6
ExecutionTime = 0.83 s  ClockTime = 0 s

scalarTransport execute: age
smoothSolver:  Solving for age, Initial residual = 0.0177742, Final residual = 0.00173296, No Iterations 9

Time = 68

smoothSolver:  Solving for Ux, Initial residual = 0.0149133, Final residual = 0.00108942, No Iterations 6
smoothSolver:  Solving for Uy, Initial residual = 0.00758712, Final residual = 0.000592764, No Iterations 6
GAMG:  Solving for p, Initial residual = 0.00685068, Final residual = 0.000548895, No Iterations 3
time step continuity errors : sum local = 0.00124095, global = 6.65213e-05, cumulative = 0.0122334
smoothSolver:  Solving for omega, Initial residual = 0.000970388, Final residual = 7.77056e-05, No Iterations 5
smoothSolver:  Solving for k, Initial residual = 0.0148728, Final residual = 0.00119079, No Iterations 6
ExecutionTime = 0.84 s  ClockTime = 0 s

scalarTransport execute: age
smoothSolver:  Solving for age, Initial residual = 0.017202, Final residual = 0.0016944, No Iterations 9

Time = 69

smoothSolver:  Solving for Ux, Initial residual = 0.0147135, Final residual = 0.00107443, No Iterations 6
smoothSolver:  Solving for Uy, Initial residual = 0.0074322, Final residual = 0.000580205, No Iterations 6
GAMG:  Solving for p, Initial residual = 0.00687856, Final residual = 0.000535916, No Iterations 3
time step continuity errors : sum local = 0.00120839, global = 6.9194e-05, cumulative = 0.0123026
smoothSolver:  Solving for omega, Initial residual = 0.000954421, Final residual = 7.54525e-05, No Iterations 5
smoothSolver:  Solving for k, Initial residual = 0.0145574, Final residual = 0.00116385, No Iterations 6
ExecutionTime = 0.85 s  ClockTime = 0 s

scalarTransport execute: age
smoothSolver:  Solving for age, Initial residual = 0.0164948, Final residual = 0.00145113, No Iterations 10

Time = 70

smoothSolver:  Solving for Ux, Initial residual = 0.0145126, Final residual = 0.00105898, No Iterations 6
smoothSolver:  Solving for Uy, Initial residual = 0.00726398, Final residual = 0.000566535, No Iterations 6
GAMG:  Solving for p, Initial residual = 0.00697104, Final residual = 0.000529405, No Iterations 3
time step continuity errors : sum local = 0.00119004, global = 6.98524e-05, cumulative = 0.0123725
smoothSolver:  Solving for omega, Initial residual = 0.000938649, Final residual = 7.33047e-05, No Iterations 5
smoothSolver:  Solving for k, Initial residual = 0.0142447, Final residual = 0.00113701, No Iterations 6
ExecutionTime = 0.86 s  ClockTime = 0 s

scalarTransport execute: age
smoothSolver:  Solving for age, Initial residual = 0.0157234, Final residual = 0.00142872, No Iterations 10

Time = 71

smoothSolver:  Solving for Ux, Initial residual = 0.0143001, Final residual = 0.0010428, No Iterations 6
smoothSolver:  Solving for Uy, Initial residual = 0.00709965, Final residual = 0.000553228, No Iterations 6
GAMG:  Solving for p, Initial residual = 0.00711804, Final residual = 0.000507755, No Iterations 3
time step continuity errors : sum local = 0.00113808, global = 6.91656e-05, cumulative = 0.0124416
smoothSolver:  Solving for omega, Initial residual = 0.000922903, Final residual = 7.12293e-05, No Iterations 5
smoothSolver:  Solving for k, Initial residual = 0.013934, Final residual = 0.00111033, No Iterations 6
ExecutionTime = 0.87 s  ClockTime = 0 s

scalarTransport execute: age
smoothSolver:  Solving for age, Initial residual = 0.0149578, Final residual = 0.00139763, No Iterations 10

Time = 72

smoothSolver:  Solving for Ux, Initial residual = 0.0140754, Final residual = 0.00102567, No Iterations 6
smoothSolver:  Solving for Uy, Initial residual = 0.00694344, Final residual = 0.000541156, No Iterations 6
GAMG:  Solving for p, Initial residual = 0.0072498, Final residual = 0.000492897, No Iterations 3
time step continuity errors : sum local = 0.00110252, global = 6.7781e-05, cumulative = 0.0125094
smoothSolver:  Solving for omega, Initial residual = 0.000906494, Final residual = 6.92386e-05, No Iterations 5
smoothSolver:  Solving for k, Initial residual = 0.0136245, Final residual = 0.00108373, No Iterations 6
ExecutionTime = 0.89 s  ClockTime = 0 s

scalarTransport execute: age
smoothSolver:  Solving for age, Initial residual = 0.0142977, Final residual = 0.00136667, No Iterations 10

Time = 73

smoothSolver:  Solving for Ux, Initial residual = 0.0138429, Final residual = 0.00100786, No Iterations 6
smoothSolver:  Solving for Uy, Initial residual = 0.00680967, Final residual = 0.000531159, No Iterations 6
GAMG:  Solving for p, Initial residual = 0.00730418, Final residual = 0.000469595, No Iterations 3
time step continuity errors : sum local = 0.00104859, global = 6.62459e-05, cumulative = 0.0125757
smoothSolver:  Solving for omega, Initial residual = 0.000890108, Final residual = 6.72728e-05, No Iterations 5
smoothSolver:  Solving for k, Initial residual = 0.0133147, Final residual = 0.00105714, No Iterations 6
ExecutionTime = 0.9 s  ClockTime = 0 s

scalarTransport execute: age
smoothSolver:  Solving for age, Initial residual = 0.0136215, Final residual = 0.00133813, No Iterations 10

Time = 74

smoothSolver:  Solving for Ux, Initial residual = 0.0135989, Final residual = 0.000989319, No Iterations 6
smoothSolver:  Solving for Uy, Initial residual = 0.00670091, Final residual = 0.000522601, No Iterations 6
GAMG:  Solving for p, Initial residual = 0.00733735, Final residual = 0.00045672, No Iterations 3
time step continuity errors : sum local = 0.00101893, global = 6.12448e-05, cumulative = 0.0126369
smoothSolver:  Solving for omega, Initial residual = 0.000873845, Final residual = 6.53596e-05, No Iterations 5
smoothSolver:  Solving for k, Initial residual = 0.013006, Final residual = 0.00103067, No Iterations 6
ExecutionTime = 0.91 s  ClockTime = 0 s

scalarTransport execute: age
smoothSolver:  Solving for age, Initial residual = 0.0130407, Final residual = 0.00115818, No Iterations 11

Time = 75

smoothSolver:  Solving for Ux, Initial residual = 0.0133495, Final residual = 0.000970464, No Iterations 6
smoothSolver:  Solving for Uy, Initial residual = 0.00659969, Final residual = 0.000515121, No Iterations 6
GAMG:  Solving for p, Initial residual = 0.00731328, Final residual = 0.000436028, No Iterations 3
time step continuity errors : sum local = 0.000972484, global = 5.91731e-05, cumulative = 0.0126961
smoothSolver:  Solving for omega, Initial residual = 0.000858641, Final residual = 6.34651e-05, No Iterations 5
smoothSolver:  Solving for k, Initial residual = 0.0126981, Final residual = 0.00100424, No Iterations 6
ExecutionTime = 0.92 s  ClockTime = 0 s

scalarTransport execute: age
smoothSolver:  Solving for age, Initial residual = 0.0124878, Final residual = 0.00113504, No Iterations 11

Time = 76

smoothSolver:  Solving for Ux, Initial residual = 0.0130905, Final residual = 0.000950847, No Iterations 6
smoothSolver:  Solving for Uy, Initial residual = 0.00651199, Final residual = 0.000508184, No Iterations 6
GAMG:  Solving for p, Initial residual = 0.00724977, Final residual = 0.000426023, No Iterations 3
time step continuity errors : sum local = 0.000950039, global = 5.74528e-05, cumulative = 0.0127535
smoothSolver:  Solving for omega, Initial residual = 0.00084194, Final residual = 6.16081e-05, No Iterations 5
smoothSolver:  Solving for k, Initial residual = 0.0123908, Final residual = 0.000977947, No Iterations 6
ExecutionTime = 0.93 s  ClockTime = 0 s

scalarTransport execute: age
smoothSolver:  Solving for age, Initial residual = 0.0120017, Final residual = 0.00111549, No Iterations 11

Time = 77

smoothSolver:  Solving for Ux, Initial residual = 0.0128211, Final residual = 0.000930736, No Iterations 6
smoothSolver:  Solving for Uy, Initial residual = 0.00642691, Final residual = 0.000501737, No Iterations 6
GAMG:  Solving for p, Initial residual = 0.00713016, Final residual = 0.000415939, No Iterations 3
time step continuity errors : sum local = 0.00092668, global = 5.58219e-05, cumulative = 0.0128094
smoothSolver:  Solving for omega, Initial residual = 0.000825667, Final residual = 5.97481e-05, No Iterations 5
smoothSolver:  Solving for k, Initial residual = 0.0120852, Final residual = 0.000951834, No Iterations 6
ExecutionTime = 0.95 s  ClockTime = 0 s

scalarTransport execute: age
smoothSolver:  Solving for age, Initial residual = 0.0115302, Final residual = 0.00109877, No Iterations 11

Time = 78

smoothSolver:  Solving for Ux, Initial residual = 0.0125486, Final residual = 0.000910084, No Iterations 6
smoothSolver:  Solving for Uy, Initial residual = 0.00634598, Final residual = 0.00049544, No Iterations 6
GAMG:  Solving for p, Initial residual = 0.00698741, Final residual = 0.000409941, No Iterations 3
time step continuity errors : sum local = 0.00091277, global = 5.46827e-05, cumulative = 0.0128641
smoothSolver:  Solving for omega, Initial residual = 0.000807998, Final residual = 5.78929e-05, No Iterations 5
smoothSolver:  Solving for k, Initial residual = 0.0117817, Final residual = 0.000925932, No Iterations 6
ExecutionTime = 0.96 s  ClockTime = 1 s

scalarTransport execute: age
smoothSolver:  Solving for age, Initial residual = 0.0111317, Final residual = 0.00108807, No Iterations 11

Time = 79

smoothSolver:  Solving for Ux, Initial residual = 0.0122746, Final residual = 0.000889064, No Iterations 6
smoothSolver:  Solving for Uy, Initial residual = 0.00626741, Final residual = 0.000489011, No Iterations 6
GAMG:  Solving for p, Initial residual = 0.00685183, Final residual = 0.000404485, No Iterations 3
time step continuity errors : sum local = 0.000899854, global = 5.33721e-05, cumulative = 0.0129174
smoothSolver:  Solving for omega, Initial residual = 0.000790671, Final residual = 5.60722e-05, No Iterations 5
smoothSolver:  Solving for k, Initial residual = 0.0114819, Final residual = 0.000900276, No Iterations 6
ExecutionTime = 0.97 s  ClockTime = 1 s

scalarTransport execute: age
smoothSolver:  Solving for age, Initial residual = 0.0107903, Final residual = 0.000954406, No Iterations 12

Time = 80

smoothSolver:  Solving for Ux, Initial residual = 0.0119984, Final residual = 0.000867784, No Iterations 6
smoothSolver:  Solving for Uy, Initial residual = 0.00618733, Final residual = 0.000482255, No Iterations 6
GAMG:  Solving for p, Initial residual = 0.00671908, Final residual = 0.000400151, No Iterations 3
time step continuity errors : sum local = 0.00088939, global = 5.16365e-05, cumulative = 0.0129691
smoothSolver:  Solving for omega, Initial residual = 0.000774872, Final residual = 5.42837e-05, No Iterations 5
smoothSolver:  Solving for k, Initial residual = 0.0111859, Final residual = 0.000874889, No Iterations 6
ExecutionTime = 0.98 s  ClockTime = 1 s

scalarTransport execute: age
smoothSolver:  Solving for age, Initial residual = 0.0104584, Final residual = 0.000947495, No Iterations 12

Time = 81

smoothSolver:  Solving for Ux, Initial residual = 0.0117206, Final residual = 0.000846146, No Iterations 6
smoothSolver:  Solving for Uy, Initial residual = 0.00610674, Final residual = 0.00047507, No Iterations 6
GAMG:  Solving for p, Initial residual = 0.00656832, Final residual = 0.000397288, No Iterations 3
time step continuity errors : sum local = 0.000882184, global = 4.94278e-05, cumulative = 0.0130185
smoothSolver:  Solving for omega, Initial residual = 0.000757332, Final residual = 5.25196e-05, No Iterations 5
smoothSolver:  Solving for k, Initial residual = 0.0108945, Final residual = 0.000849833, No Iterations 6
ExecutionTime = 0.99 s  ClockTime = 1 s

scalarTransport execute: age
smoothSolver:  Solving for age, Initial residual = 0.0101517, Final residual = 0.000940096, No Iterations 12

Time = 82

smoothSolver:  Solving for Ux, Initial residual = 0.0114408, Final residual = 0.000824303, No Iterations 6
smoothSolver:  Solving for Uy, Initial residual = 0.00602396, Final residual = 0.000467489, No Iterations 6
GAMG:  Solving for p, Initial residual = 0.00641777, Final residual = 0.000395543, No Iterations 3
time step continuity errors : sum local = 0.000877408, global = 4.6634e-05, cumulative = 0.0130651
smoothSolver:  Solving for omega, Initial residual = 0.000740852, Final residual = 5.07815e-05, No Iterations 5
smoothSolver:  Solving for k, Initial residual = 0.0106078, Final residual = 0.000825168, No Iterations 6
ExecutionTime = 1.01 s  ClockTime = 1 s

scalarTransport execute: age
smoothSolver:  Solving for age, Initial residual = 0.00988447, Final residual = 0.000931843, No Iterations 12

Time = 83

smoothSolver:  Solving for Ux, Initial residual = 0.0111552, Final residual = 0.000802225, No Iterations 6
smoothSolver:  Solving for Uy, Initial residual = 0.00593847, Final residual = 0.00045951, No Iterations 6
GAMG:  Solving for p, Initial residual = 0.00627996, Final residual = 0.000394746, No Iterations 3
time step continuity errors : sum local = 0.000874381, global = 4.3229e-05, cumulative = 0.0131084
smoothSolver:  Solving for omega, Initial residual = 0.000724337, Final residual = 4.90715e-05, No Iterations 5
smoothSolver:  Solving for k, Initial residual = 0.0103265, Final residual = 0.000800869, No Iterations 6
ExecutionTime = 1.02 s  ClockTime = 1 s

scalarTransport execute: age
smoothSolver:  Solving for age, Initial residual = 0.00961607, Final residual = 0.000922451, No Iterations 12

Time = 84

smoothSolver:  Solving for Ux, Initial residual = 0.0108657, Final residual = 0.000779682, No Iterations 6
smoothSolver:  Solving for Uy, Initial residual = 0.00585071, Final residual = 0.00045117, No Iterations 6
GAMG:  Solving for p, Initial residual = 0.00615191, Final residual = 0.000379392, No Iterations 3
time step continuity errors : sum local = 0.000839072, global = 3.89741e-05, cumulative = 0.0131473
smoothSolver:  Solving for omega, Initial residual = 0.000709353, Final residual = 4.74056e-05, No Iterations 5
smoothSolver:  Solving for k, Initial residual = 0.0100501, Final residual = 0.000776914, No Iterations 6
ExecutionTime = 1.03 s  ClockTime = 1 s

scalarTransport execute: age
smoothSolver:  Solving for age, Initial residual = 0.00937022, Final residual = 0.00091165, No Iterations 12

Time = 85

smoothSolver:  Solving for Ux, Initial residual = 0.0105782, Final residual = 0.000757274, No Iterations 6
smoothSolver:  Solving for Uy, Initial residual = 0.00575833, Final residual = 0.000442205, No Iterations 6
GAMG:  Solving for p, Initial residual = 0.00608109, Final residual = 0.000387915, No Iterations 3
time step continuity errors : sum local = 0.000856276, global = 3.48122e-05, cumulative = 0.0131821
smoothSolver:  Solving for omega, Initial residual = 0.000693926, Final residual = 4.57954e-05, No Iterations 5
smoothSolver:  Solving for k, Initial residual = 0.00977758, Final residual = 0.000753279, No Iterations 6
ExecutionTime = 1.04 s  ClockTime = 1 s

scalarTransport execute: age
smoothSolver:  Solving for age, Initial residual = 0.00913439, Final residual = 0.000900091, No Iterations 12

Time = 86

smoothSolver:  Solving for Ux, Initial residual = 0.010275, Final residual = 0.00073384, No Iterations 6
smoothSolver:  Solving for Uy, Initial residual = 0.00567368, Final residual = 0.000433855, No Iterations 6
GAMG:  Solving for p, Initial residual = 0.00605479, Final residual = 0.000380637, No Iterations 3
time step continuity errors : sum local = 0.000838857, global = 2.94541e-05, cumulative = 0.0132116
smoothSolver:  Solving for omega, Initial residual = 0.000679386, Final residual = 4.42517e-05, No Iterations 5
smoothSolver:  Solving for k, Initial residual = 0.00951107, Final residual = 0.000730037, No Iterations 6
ExecutionTime = 1.06 s  ClockTime = 1 s

scalarTransport execute: age
smoothSolver:  Solving for age, Initial residual = 0.00890091, Final residual = 0.000887277, No Iterations 12

Time = 87

smoothSolver:  Solving for Ux, Initial residual = 0.00997942, Final residual = 0.00071055, No Iterations 6
smoothSolver:  Solving for Uy, Initial residual = 0.00558337, Final residual = 0.000424927, No Iterations 6
GAMG:  Solving for p, Initial residual = 0.00610223, Final residual = 0.00038091, No Iterations 3
time step continuity errors : sum local = 0.000837806, global = 2.56352e-05, cumulative = 0.0132372
smoothSolver:  Solving for omega, Initial residual = 0.000666668, Final residual = 4.2765e-05, No Iterations 5
smoothSolver:  Solving for k, Initial residual = 0.00925011, Final residual = 0.000707166, No Iterations 6
ExecutionTime = 1.07 s  ClockTime = 1 s

scalarTransport execute: age
smoothSolver:  Solving for age, Initial residual = 0.0086749, Final residual = 0.000766838, No Iterations 13

Time = 88

smoothSolver:  Solving for Ux, Initial residual = 0.00967986, Final residual = 0.000686912, No Iterations 6
smoothSolver:  Solving for Uy, Initial residual = 0.00550181, Final residual = 0.00041655, No Iterations 6
GAMG:  Solving for p, Initial residual = 0.00616405, Final residual = 0.000382693, No Iterations 3
time step continuity errors : sum local = 0.000840064, global = 2.15139e-05, cumulative = 0.0132587
smoothSolver:  Solving for omega, Initial residual = 0.000656262, Final residual = 4.13651e-05, No Iterations 5
smoothSolver:  Solving for k, Initial residual = 0.0089937, Final residual = 0.000684585, No Iterations 6
ExecutionTime = 1.08 s  ClockTime = 1 s

scalarTransport execute: age
smoothSolver:  Solving for age, Initial residual = 0.00843596, Final residual = 0.000750408, No Iterations 13

Time = 89

smoothSolver:  Solving for Ux, Initial residual = 0.00938217, Final residual = 0.000662967, No Iterations 6
smoothSolver:  Solving for Uy, Initial residual = 0.00542237, Final residual = 0.000408473, No Iterations 6
GAMG:  Solving for p, Initial residual = 0.0062657, Final residual = 0.000384324, No Iterations 3
time step continuity errors : sum local = 0.000841817, global = 1.78092e-05, cumulative = 0.0132765
smoothSolver:  Solving for omega, Initial residual = 0.000648199, Final residual = 4.00407e-05, No Iterations 5
smoothSolver:  Solving for k, Initial residual = 0.00874294, Final residual = 0.000662339, No Iterations 6
ExecutionTime = 1.09 s  ClockTime = 1 s

scalarTransport execute: age
smoothSolver:  Solving for age, Initial residual = 0.00819629, Final residual = 0.000733357, No Iterations 13

Time = 90

smoothSolver:  Solving for Ux, Initial residual = 0.00908213, Final residual = 0.000638819, No Iterations 6
smoothSolver:  Solving for Uy, Initial residual = 0.00535679, Final residual = 0.000400936, No Iterations 6
GAMG:  Solving for p, Initial residual = 0.00632802, Final residual = 0.000394039, No Iterations 3
time step continuity errors : sum local = 0.00086008, global = 1.45987e-05, cumulative = 0.0132911
smoothSolver:  Solving for omega, Initial residual = 0.000643593, Final residual = 6.34886e-05, No Iterations 4
smoothSolver:  Solving for k, Initial residual = 0.00849906, Final residual = 0.000640485, No Iterations 6
ExecutionTime = 1.1 s  ClockTime = 1 s

scalarTransport execute: age
smoothSolver:  Solving for age, Initial residual = 0.00801011, Final residual = 0.000720152, No Iterations 13

Time = 91

smoothSolver:  Solving for Ux, Initial residual = 0.00877165, Final residual = 0.000614447, No Iterations 6
smoothSolver:  Solving for Uy, Initial residual = 0.00530275, Final residual = 0.000394202, No Iterations 6
GAMG:  Solving for p, Initial residual = 0.0063147, Final residual = 0.000400076, No Iterations 3
time step continuity errors : sum local = 0.000869752, global = 1.15518e-05, cumulative = 0.0133027
smoothSolver:  Solving for omega, Initial residual = 0.000645926, Final residual = 6.22309e-05, No Iterations 4
smoothSolver:  Solving for k, Initial residual = 0.00826079, Final residual = 0.000618978, No Iterations 6
ExecutionTime = 1.12 s  ClockTime = 1 s

scalarTransport execute: age
smoothSolver:  Solving for age, Initial residual = 0.00778366, Final residual = 0.000697564, No Iterations 13

Time = 92

smoothSolver:  Solving for Ux, Initial residual = 0.00846482, Final residual = 0.00059004, No Iterations 6
smoothSolver:  Solving for Uy, Initial residual = 0.00525537, Final residual = 0.000388121, No Iterations 6
GAMG:  Solving for p, Initial residual = 0.00628971, Final residual = 0.000399747, No Iterations 3
time step continuity errors : sum local = 0.00086529, global = 8.61814e-06, cumulative = 0.0133113
smoothSolver:  Solving for omega, Initial residual = 0.000647965, Final residual = 6.08605e-05, No Iterations 4
smoothSolver:  Solving for k, Initial residual = 0.00802762, Final residual = 0.000597777, No Iterations 6
ExecutionTime = 1.13 s  ClockTime = 1 s

scalarTransport execute: age
smoothSolver:  Solving for age, Initial residual = 0.00763991, Final residual = 0.000687251, No Iterations 13

Time = 93

smoothSolver:  Solving for Ux, Initial residual = 0.00815139, Final residual = 0.000566014, No Iterations 6
smoothSolver:  Solving for Uy, Initial residual = 0.0052194, Final residual = 0.000382887, No Iterations 6
GAMG:  Solving for p, Initial residual = 0.00628105, Final residual = 0.000398048, No Iterations 3
time step continuity errors : sum local = 0.000857618, global = 5.18904e-06, cumulative = 0.0133165
smoothSolver:  Solving for omega, Initial residual = 0.000649427, Final residual = 5.93488e-05, No Iterations 4
smoothSolver:  Solving for k, Initial residual = 0.00779924, Final residual = 0.00057686, No Iterations 6
ExecutionTime = 1.14 s  ClockTime = 1 s

scalarTransport execute: age
smoothSolver:  Solving for age, Initial residual = 0.00741456, Final residual = 0.000665148, No Iterations 13

Time = 94

smoothSolver:  Solving for Ux, Initial residual = 0.00783605, Final residual = 0.000541674, No Iterations 6
smoothSolver:  Solving for Uy, Initial residual = 0.00519616, Final residual = 0.00037835, No Iterations 6
GAMG:  Solving for p, Initial residual = 0.00623734, Final residual = 0.000393728, No Iterations 3
time step continuity errors : sum local = 0.000844019, global = 1.96771e-06, cumulative = 0.0133185
smoothSolver:  Solving for omega, Initial residual = 0.000648882, Final residual = 5.7813e-05, No Iterations 4
smoothSolver:  Solving for k, Initial residual = 0.00757573, Final residual = 0.000556256, No Iterations 6
ExecutionTime = 1.15 s  ClockTime = 1 s

scalarTransport execute: age
smoothSolver:  Solving for age, Initial residual = 0.00719564, Final residual = 0.000642653, No Iterations 13

Time = 95

smoothSolver:  Solving for Ux, Initial residual = 0.00751456, Final residual = 0.000517695, No Iterations 6
smoothSolver:  Solving for Uy, Initial residual = 0.00518057, Final residual = 0.000374047, No Iterations 6
GAMG:  Solving for p, Initial residual = 0.00618694, Final residual = 0.000388832, No Iterations 3
time step continuity errors : sum local = 0.00082922, global = -8.24282e-07, cumulative = 0.0133177
smoothSolver:  Solving for omega, Initial residual = 0.000648945, Final residual = 5.62531e-05, No Iterations 4
smoothSolver:  Solving for k, Initial residual = 0.00735614, Final residual = 0.00053595, No Iterations 6
ExecutionTime = 1.16 s  ClockTime = 1 s

scalarTransport execute: age
smoothSolver:  Solving for age, Initial residual = 0.0070041, Final residual = 0.000621501, No Iterations 13

Time = 96

smoothSolver:  Solving for Ux, Initial residual = 0.00719617, Final residual = 0.000493767, No Iterations 6
smoothSolver:  Solving for Uy, Initial residual = 0.00516508, Final residual = 0.000369835, No Iterations 6
[...]

Time = 598

smoothSolver:  Solving for Ux, Initial residual = 7.1906e-07, Final residual = 6.38837e-08, No Iterations 5
smoothSolver:  Solving for Uy, Initial residual = 6.08891e-07, Final residual = 5.99606e-08, No Iterations 5
GAMG:  Solving for p, Initial residual = 1.45458e-06, Final residual = 7.36865e-08, No Iterations 3
time step continuity errors : sum local = 1.31531e-07, global = 1.08713e-08, cumulative = 0.0194251
smoothSolver:  Solving for omega, Initial residual = 6.27482e-08, Final residual = 9.90491e-09, No Iterations 3
smoothSolver:  Solving for k, Initial residual = 1.20058e-07, Final residual = 9.19757e-09, No Iterations 5
ExecutionTime = 7.05 s  ClockTime = 7 s

scalarTransport execute: age
smoothSolver:  Solving for age, Initial residual = 0.00032275, Final residual = 2.99959e-05, No Iterations 15

Time = 599

smoothSolver:  Solving for Ux, Initial residual = 7.06583e-07, Final residual = 6.23024e-08, No Iterations 5
smoothSolver:  Solving for Uy, Initial residual = 5.97736e-07, Final residual = 5.91288e-08, No Iterations 5
GAMG:  Solving for p, Initial residual = 1.36589e-06, Final residual = 1.18674e-07, No Iterations 2
time step continuity errors : sum local = 2.11834e-07, global = 1.43468e-08, cumulative = 0.0194251
smoothSolver:  Solving for omega, Initial residual = 6.23596e-08, Final residual = 9.93579e-09, No Iterations 3
smoothSolver:  Solving for k, Initial residual = 1.18382e-07, Final residual = 9.04909e-09, No Iterations 5
ExecutionTime = 7.06 s  ClockTime = 7 s

scalarTransport execute: age
smoothSolver:  Solving for age, Initial residual = 0.00032211, Final residual = 2.99376e-05, No Iterations 15

Time = 600

smoothSolver:  Solving for Ux, Initial residual = 6.98346e-07, Final residual = 6.20374e-08, No Iterations 5
smoothSolver:  Solving for Uy, Initial residual = 5.91508e-07, Final residual = 5.82505e-08, No Iterations 5
GAMG:  Solving for p, Initial residual = 1.41332e-06, Final residual = 7.15597e-08, No Iterations 3
time step continuity errors : sum local = 1.27735e-07, global = 1.05629e-08, cumulative = 0.0194251
smoothSolver:  Solving for omega, Initial residual = 6.28772e-08, Final residual = 9.99488e-09, No Iterations 3
smoothSolver:  Solving for k, Initial residual = 1.16966e-07, Final residual = 8.96063e-09, No Iterations 5
ExecutionTime = 7.07 s  ClockTime = 7 s

scalarTransport execute: age
smoothSolver:  Solving for age, Initial residual = 0.000321467, Final residual = 2.98783e-05, No Iterations 15

Time = 601

smoothSolver:  Solving for Ux, Initial residual = 6.8627e-07, Final residual = 6.05048e-08, No Iterations 5
smoothSolver:  Solving for Uy, Initial residual = 5.80659e-07, Final residual = 5.74365e-08, No Iterations 5
GAMG:  Solving for p, Initial residual = 1.32701e-06, Final residual = 1.15281e-07, No Iterations 2
time step continuity errors : sum local = 2.05779e-07, global = 1.39284e-08, cumulative = 0.0194251
smoothSolver:  Solving for omega, Initial residual = 6.19873e-08, Final residual = 9.94247e-09, No Iterations 3
smoothSolver:  Solving for k, Initial residual = 1.15189e-07, Final residual = 8.80609e-09, No Iterations 5
ExecutionTime = 7.08 s  ClockTime = 7 s

scalarTransport execute: age
smoothSolver:  Solving for age, Initial residual = 0.000320833, Final residual = 2.98205e-05, No Iterations 15

Time = 602

smoothSolver:  Solving for Ux, Initial residual = 6.7828e-07, Final residual = 6.02491e-08, No Iterations 5
smoothSolver:  Solving for Uy, Initial residual = 5.74574e-07, Final residual = 5.65809e-08, No Iterations 5
GAMG:  Solving for p, Initial residual = 1.37297e-06, Final residual = 6.95072e-08, No Iterations 3
time step continuity errors : sum local = 1.24071e-07, global = 1.02626e-08, cumulative = 0.0194251
smoothSolver:  Solving for omega, Initial residual = 6.21465e-08, Final residual = 9.93862e-09, No Iterations 3
smoothSolver:  Solving for k, Initial residual = 1.13721e-07, Final residual = 8.71293e-09, No Iterations 5
ExecutionTime = 7.1 s  ClockTime = 7 s

scalarTransport execute: age
smoothSolver:  Solving for age, Initial residual = 0.000320195, Final residual = 2.97615e-05, No Iterations 15

Time = 603

smoothSolver:  Solving for Ux, Initial residual = 6.66552e-07, Final residual = 5.87611e-08, No Iterations 5
smoothSolver:  Solving for Uy, Initial residual = 5.64e-07, Final residual = 5.57872e-08, No Iterations 5
GAMG:  Solving for p, Initial residual = 1.28906e-06, Final residual = 1.12017e-07, No Iterations 2
time step continuity errors : sum local = 1.99952e-07, global = 1.35261e-08, cumulative = 0.0194251
smoothSolver:  Solving for omega, Initial residual = 6.10374e-08, Final residual = 9.84067e-09, No Iterations 3
smoothSolver:  Solving for k, Initial residual = 1.11929e-07, Final residual = 8.5574e-09, No Iterations 5
ExecutionTime = 7.11 s  ClockTime = 7 s

scalarTransport execute: age
smoothSolver:  Solving for age, Initial residual = 0.000319565, Final residual = 2.97041e-05, No Iterations 15

Time = 604

smoothSolver:  Solving for Ux, Initial residual = 6.58775e-07, Final residual = 5.85124e-08, No Iterations 5
smoothSolver:  Solving for Uy, Initial residual = 5.58106e-07, Final residual = 5.49576e-08, No Iterations 5
GAMG:  Solving for p, Initial residual = 1.33383e-06, Final residual = 6.75195e-08, No Iterations 3
time step continuity errors : sum local = 1.20523e-07, global = 9.96793e-09, cumulative = 0.0194252
smoothSolver:  Solving for omega, Initial residual = 6.10114e-08, Final residual = 9.80002e-09, No Iterations 3
smoothSolver:  Solving for k, Initial residual = 1.10453e-07, Final residual = 8.46243e-09, No Iterations 5
ExecutionTime = 7.12 s  ClockTime = 7 s

scalarTransport execute: age
smoothSolver:  Solving for age, Initial residual = 0.000318932, Final residual = 2.96455e-05, No Iterations 15

Time = 605

smoothSolver:  Solving for Ux, Initial residual = 6.47366e-07, Final residual = 5.70668e-08, No Iterations 5
smoothSolver:  Solving for Uy, Initial residual = 5.47837e-07, Final residual = 5.4187e-08, No Iterations 5
GAMG:  Solving for p, Initial residual = 1.25227e-06, Final residual = 1.08833e-07, No Iterations 2
time step continuity errors : sum local = 1.94269e-07, global = 1.31372e-08, cumulative = 0.0194252
smoothSolver:  Solving for omega, Initial residual = 5.97975e-08, Final residual = 9.67599e-09, No Iterations 3
smoothSolver:  Solving for k, Initial residual = 1.0867e-07, Final residual = 8.30753e-09, No Iterations 5
ExecutionTime = 7.13 s  ClockTime = 7 s

scalarTransport execute: age
smoothSolver:  Solving for age, Initial residual = 0.000318306, Final residual = 2.95883e-05, No Iterations 15

Time = 606

smoothSolver:  Solving for Ux, Initial residual = 6.39805e-07, Final residual = 5.68257e-08, No Iterations 5
smoothSolver:  Solving for Uy, Initial residual = 5.42125e-07, Final residual = 5.33818e-08, No Iterations 5
GAMG:  Solving for p, Initial residual = 1.29585e-06, Final residual = 6.55852e-08, No Iterations 3
time step continuity errors : sum local = 1.17071e-07, global = 9.68176e-09, cumulative = 0.0194252
smoothSolver:  Solving for omega, Initial residual = 5.96704e-08, Final residual = 9.61369e-09, No Iterations 3
smoothSolver:  Solving for k, Initial residual = 1.07202e-07, Final residual = 8.21211e-09, No Iterations 5
ExecutionTime = 7.14 s  ClockTime = 7 s

scalarTransport execute: age
smoothSolver:  Solving for age, Initial residual = 0.000317678, Final residual = 2.95301e-05, No Iterations 15

Time = 607

smoothSolver:  Solving for Ux, Initial residual = 6.28714e-07, Final residual = 5.54224e-08, No Iterations 5
smoothSolver:  Solving for Uy, Initial residual = 5.32144e-07, Final residual = 5.26325e-08, No Iterations 5
GAMG:  Solving for p, Initial residual = 1.2166e-06, Final residual = 1.05729e-07, No Iterations 2
time step continuity errors : sum local = 1.88728e-07, global = 1.27613e-08, cumulative = 0.0194252
smoothSolver:  Solving for omega, Initial residual = 5.84102e-08, Final residual = 9.47505e-09, No Iterations 3
smoothSolver:  Solving for k, Initial residual = 1.05441e-07, Final residual = 8.05899e-09, No Iterations 5
ExecutionTime = 7.15 s  ClockTime = 7 s

scalarTransport execute: age
smoothSolver:  Solving for age, Initial residual = 0.000317057, Final residual = 2.94733e-05, No Iterations 15

Time = 608

smoothSolver:  Solving for Ux, Initial residual = 6.21365e-07, Final residual = 5.51894e-08, No Iterations 5
smoothSolver:  Solving for Uy, Initial residual = 5.26593e-07, Final residual = 5.18504e-08, No Iterations 5
GAMG:  Solving for p, Initial residual = 1.25892e-06, Final residual = 6.36998e-08, No Iterations 3
time step continuity errors : sum local = 1.13705e-07, global = 9.40471e-09, cumulative = 0.0194252
smoothSolver:  Solving for omega, Initial residual = 5.82266e-08, Final residual = 9.40028e-09, No Iterations 3
smoothSolver:  Solving for k, Initial residual = 1.03991e-07, Final residual = 7.96434e-09, No Iterations 5
ExecutionTime = 7.17 s  ClockTime = 7 s

scalarTransport execute: age
smoothSolver:  Solving for age, Initial residual = 0.000316434, Final residual = 2.94154e-05, No Iterations 15

Time = 609

smoothSolver:  Solving for Ux, Initial residual = 6.1059e-07, Final residual = 5.38276e-08, No Iterations 5
smoothSolver:  Solving for Uy, Initial residual = 5.16885e-07, Final residual = 5.11218e-08, No Iterations 5
GAMG:  Solving for p, Initial residual = 1.18193e-06, Final residual = 1.027e-07, No Iterations 2
time step continuity errors : sum local = 1.83321e-07, global = 1.23968e-08, cumulative = 0.0194252
smoothSolver:  Solving for omega, Initial residual = 5.69513e-08, Final residual = 9.25413e-09, No Iterations 3
smoothSolver:  Solving for k, Initial residual = 1.02263e-07, Final residual = 7.81423e-09, No Iterations 5
ExecutionTime = 7.18 s  ClockTime = 7 s

scalarTransport execute: age
smoothSolver:  Solving for age, Initial residual = 0.000315818, Final residual = 2.9359e-05, No Iterations 15

Time = 610

smoothSolver:  Solving for Ux, Initial residual = 6.03458e-07, Final residual = 5.3603e-08, No Iterations 5
smoothSolver:  Solving for Uy, Initial residual = 5.11487e-07, Final residual = 5.03623e-08, No Iterations 5
GAMG:  Solving for p, Initial residual = 1.22296e-06, Final residual = 6.18622e-08, No Iterations 3
time step continuity errors : sum local = 1.10425e-07, global = 9.13609e-09, cumulative = 0.0194252
smoothSolver:  Solving for omega, Initial residual = 5.67375e-08, Final residual = 9.17244e-09, No Iterations 3
smoothSolver:  Solving for k, Initial residual = 1.00845e-07, Final residual = 7.72156e-09, No Iterations 5
ExecutionTime = 7.19 s  ClockTime = 7 s

scalarTransport execute: age
smoothSolver:  Solving for age, Initial residual = 0.000315199, Final residual = 2.93016e-05, No Iterations 15

Time = 611

smoothSolver:  Solving for Ux, Initial residual = 5.93002e-07, Final residual = 5.22818e-08, No Iterations 5
smoothSolver:  Solving for Uy, Initial residual = 5.02057e-07, Final residual = 4.96552e-08, No Iterations 5
GAMG:  Solving for p, Initial residual = 1.1482e-06, Final residual = 9.97513e-08, No Iterations 2
time step continuity errors : sum local = 1.78058e-07, global = 1.20409e-08, cumulative = 0.0194252
smoothSolver:  Solving for omega, Initial residual = 5.54646e-08, Final residual = 9.02313e-09, No Iterations 3
smoothSolver:  Solving for k, Initial residual = 9.91618e-08, Final residual = 7.57562e-09, No Iterations 5
ExecutionTime = 7.2 s  ClockTime = 7 s

scalarTransport execute: age
smoothSolver:  Solving for age, Initial residual = 0.000314588, Final residual = 2.92456e-05, No Iterations 15

Time = 612

smoothSolver:  Solving for Ux, Initial residual = 5.86098e-07, Final residual = 5.20659e-08, No Iterations 5
smoothSolver:  Solving for Uy, Initial residual = 4.96822e-07, Final residual = 4.89186e-08, No Iterations 5
GAMG:  Solving for p, Initial residual = 1.18796e-06, Final residual = 6.00762e-08, No Iterations 3
time step continuity errors : sum local = 1.07237e-07, global = 8.87571e-09, cumulative = 0.0194252
smoothSolver:  Solving for omega, Initial residual = 5.52351e-08, Final residual = 8.93796e-09, No Iterations 3
smoothSolver:  Solving for k, Initial residual = 9.77858e-08, Final residual = 7.48593e-09, No Iterations 5
ExecutionTime = 7.21 s  ClockTime = 7 s

scalarTransport execute: age
smoothSolver:  Solving for age, Initial residual = 0.000313973, Final residual = 2.91886e-05, No Iterations 15

Time = 613

smoothSolver:  Solving for Ux, Initial residual = 5.75963e-07, Final residual = 5.07838e-08, No Iterations 5
smoothSolver:  Solving for Uy, Initial residual = 4.87678e-07, Final residual = 4.82343e-08, No Iterations 5
GAMG:  Solving for p, Initial residual = 1.11541e-06, Final residual = 9.68952e-08, No Iterations 2
time step continuity errors : sum local = 1.7296e-07, global = 1.16935e-08, cumulative = 0.0194253
smoothSolver:  Solving for omega, Initial residual = 5.39757e-08, Final residual = 8.78824e-09, No Iterations 3
smoothSolver:  Solving for k, Initial residual = 9.61583e-08, Final residual = 7.34495e-09, No Iterations 5
ExecutionTime = 7.22 s  ClockTime = 7 s

scalarTransport execute: age
smoothSolver:  Solving for age, Initial residual = 0.000313366, Final residual = 2.9133e-05, No Iterations 15

Time = 614

smoothSolver:  Solving for Ux, Initial residual = 5.69295e-07, Final residual = 5.05764e-08, No Iterations 5
smoothSolver:  Solving for Uy, Initial residual = 4.82627e-07, Final residual = 4.75214e-08, No Iterations 5
GAMG:  Solving for p, Initial residual = 1.15399e-06, Final residual = 5.83467e-08, No Iterations 3
time step continuity errors : sum local = 1.0415e-07, global = 8.62377e-09, cumulative = 0.0194253
smoothSolver:  Solving for omega, Initial residual = 5.3739e-08, Final residual = 8.70179e-09, No Iterations 3
smoothSolver:  Solving for k, Initial residual = 9.48339e-08, Final residual = 7.25895e-09, No Iterations 5
ExecutionTime = 7.23 s  ClockTime = 7 s

scalarTransport execute: age
smoothSolver:  Solving for age, Initial residual = 0.000312757, Final residual = 2.90764e-05, No Iterations 15

Time = 615

smoothSolver:  Solving for Ux, Initial residual = 5.59478e-07, Final residual = 4.93314e-08, No Iterations 5
smoothSolver:  Solving for Uy, Initial residual = 4.73774e-07, Final residual = 4.68607e-08, No Iterations 5
GAMG:  Solving for p, Initial residual = 1.08361e-06, Final residual = 9.41376e-08, No Iterations 2
time step continuity errors : sum local = 1.68038e-07, global = 1.13557e-08, cumulative = 0.0194253
smoothSolver:  Solving for omega, Initial residual = 5.25005e-08, Final residual = 8.55339e-09, No Iterations 3
smoothSolver:  Solving for k, Initial residual = 9.32689e-08, Final residual = 7.12338e-09, No Iterations 5
ExecutionTime = 7.25 s  ClockTime = 7 s

scalarTransport execute: age
smoothSolver:  Solving for age, Initial residual = 0.000312155, Final residual = 2.90212e-05, No Iterations 15

Time = 616

smoothSolver:  Solving for Ux, Initial residual = 5.53039e-07, Final residual = 4.91319e-08, No Iterations 5
smoothSolver:  Solving for Uy, Initial residual = 4.68916e-07, Final residual = 4.61714e-08, No Iterations 5
GAMG:  Solving for p, Initial residual = 1.12111e-06, Final residual = 5.66767e-08, No Iterations 3
time step continuity errors : sum local = 1.01169e-07, global = 8.38022e-09, cumulative = 0.0194253
smoothSolver:  Solving for omega, Initial residual = 5.22624e-08, Final residual = 8.46709e-09, No Iterations 3
smoothSolver:  Solving for k, Initial residual = 9.20015e-08, Final residual = 7.04143e-09, No Iterations 5
ExecutionTime = 7.26 s  ClockTime = 7 s

scalarTransport execute: age
smoothSolver:  Solving for age, Initial residual = 0.000311551, Final residual = 2.8965e-05, No Iterations 15

Time = 617

smoothSolver:  Solving for Ux, Initial residual = 5.43527e-07, Final residual = 4.79222e-08, No Iterations 5
smoothSolver:  Solving for Uy, Initial residual = 4.60349e-07, Final residual = 4.55339e-08, No Iterations 5
GAMG:  Solving for p, Initial residual = 1.05282e-06, Final residual = 9.14777e-08, No Iterations 2
time step continuity errors : sum local = 1.6329e-07, global = 1.10287e-08, cumulative = 0.0194253
smoothSolver:  Solving for omega, Initial residual = 5.10499e-08, Final residual = 8.32111e-09, No Iterations 3
smoothSolver:  Solving for k, Initial residual = 9.05017e-08, Final residual = 6.9114e-09, No Iterations 5
ExecutionTime = 7.27 s  ClockTime = 7 s

scalarTransport execute: age
smoothSolver:  Solving for age, Initial residual = 0.000310954, Final residual = 2.89102e-05, No Iterations 15

Time = 618

smoothSolver:  Solving for Ux, Initial residual = 5.37302e-07, Final residual = 4.77297e-08, No Iterations 5
smoothSolver:  Solving for Uy, Initial residual = 4.55677e-07, Final residual = 4.48672e-08, No Iterations 5
GAMG:  Solving for p, Initial residual = 1.08929e-06, Final residual = 5.50657e-08, No Iterations 3
time step continuity errors : sum local = 9.82937e-08, global = 8.1445e-09, cumulative = 0.0194253
smoothSolver:  Solving for omega, Initial residual = 5.08137e-08, Final residual = 8.23592e-09, No Iterations 3
smoothSolver:  Solving for k, Initial residual = 8.92922e-08, Final residual = 6.83349e-09, No Iterations 5
ExecutionTime = 7.28 s  ClockTime = 7 s

scalarTransport execute: age
smoothSolver:  Solving for age, Initial residual = 0.000310353, Final residual = 2.88545e-05, No Iterations 15

Time = 619

smoothSolver:  Solving for Ux, Initial residual = 5.28076e-07, Final residual = 4.65535e-08, No Iterations 5
smoothSolver:  Solving for Uy, Initial residual = 4.47378e-07, Final residual = 4.42508e-08, No Iterations 5
GAMG:  Solving for p, Initial residual = 1.02298e-06, Final residual = 8.89074e-08, No Iterations 2
time step continuity errors : sum local = 1.58702e-07, global = 1.07127e-08, cumulative = 0.0194253
smoothSolver:  Solving for omega, Initial residual = 4.96305e-08, Final residual = 8.09306e-09, No Iterations 3
smoothSolver:  Solving for k, Initial residual = 8.78558e-08, Final residual = 6.70887e-09, No Iterations 5
ExecutionTime = 7.29 s  ClockTime = 7 s

scalarTransport execute: age
smoothSolver:  Solving for age, Initial residual = 0.000309758, Final residual = 2.88e-05, No Iterations 15

Time = 620

smoothSolver:  Solving for Ux, Initial residual = 5.22041e-07, Final residual = 4.63671e-08, No Iterations 5
smoothSolver:  Solving for Uy, Initial residual = 4.42867e-07, Final residual = 4.36045e-08, No Iterations 5
GAMG:  Solving for p, Initial residual = 1.05846e-06, Final residual = 5.35094e-08, No Iterations 3
time step continuity errors : sum local = 9.55157e-08, global = 7.91566e-09, cumulative = 0.0194253
smoothSolver:  Solving for omega, Initial residual = 4.93976e-08, Final residual = 8.00958e-09, No Iterations 3
smoothSolver:  Solving for k, Initial residual = 8.67008e-08, Final residual = 6.63475e-09, No Iterations 5
ExecutionTime = 7.3 s  ClockTime = 7 s

scalarTransport execute: age
smoothSolver:  Solving for age, Initial residual = 0.00030916, Final residual = 2.87448e-05, No Iterations 15

Time = 621

smoothSolver:  Solving for Ux, Initial residual = 5.13077e-07, Final residual = 4.52234e-08, No Iterations 5
smoothSolver:  Solving for Uy, Initial residual = 4.34806e-07, Final residual = 4.30061e-08, No Iterations 5
GAMG:  Solving for p, Initial residual = 9.94024e-07, Final residual = 8.64139e-08, No Iterations 2
time step continuity errors : sum local = 1.54251e-07, global = 1.04068e-08, cumulative = 0.0194253
smoothSolver:  Solving for omega, Initial residual = 4.82458e-08, Final residual = 7.87021e-09, No Iterations 3
smoothSolver:  Solving for k, Initial residual = 8.53229e-08, Final residual = 6.51518e-09, No Iterations 5
ExecutionTime = 7.32 s  ClockTime = 7 s


SIMPLE solution converged in 621 iterations

scalarTransport execute: age
smoothSolver:  Solving for age, Initial residual = 0.000308568, Final residual = 2.86907e-05, No Iterations 15

End

