/*---------------------------------------------------------------------------*\
| =========                 |                                                 |
| \\      /  F ield         | OpenFOAM: The Open Source CFD Toolbox           |
|  \\    /   O peration     | Version:  v2012                                 |
|   \\  /    A nd           | Website:  www.openfoam.com                      |
|    \\/     M anipulation  |                                                 |
\*---------------------------------------------------------------------------*/
Build  : _7bdb509494-20201222 OPENFOAM=2012
Arch   : "LSB;label=32;scalar=64"
Exec   : simpleFoam
Date   : Feb 23 2023
Time   : 20:03:15
Host   : johnsDesktop
PID    : 12724
I/O    : uncollated
Case   : /home/john/of_runs/cases/dbl_0_35_7-00280_9
nProcs : 1
trapFpe: Floating point exception trapping enabled (FOAM_SIGFPE).
fileModificationChecking : Monitoring run-time modified files using timeStampMaster (fileModificationSkew 5, maxFileModificationPolls 20)
allowSystemOperations : Allowing user-supplied system call operations

// * * * * * * * * * * * * * * * * * * * * * * * * * * * * * * * * * * * * * //
Create time

Create mesh for time = 0


SIMPLE: convergence criteria
    field p	 tolerance 1e-06
    field U	 tolerance 1e-06
    field "(k|epsilon|omega|f|v2|age)"	 tolerance 1e-05

Reading field p

Reading field U

Reading/calculating face flux field phi

Selecting incompressible transport model Newtonian
Selecting turbulence model type RAS
Selecting RAS turbulence model kOmegaSST
Selecting patchDistMethod meshWave
RAS
{
    RASModel        kOmegaSST;
    turbulence      on;
    printCoeffs     on;
    alphaK1         0.85;
    alphaK2         1;
    alphaOmega1     0.5;
    alphaOmega2     0.856;
    gamma1          0.555556;
    gamma2          0.44;
    beta1           0.075;
    beta2           0.0828;
    betaStar        0.09;
    a1              0.31;
    b1              1;
    c1              10;
    F3              false;
    decayControl    false;
    kInf            0;
    omegaInf        0;
}

No MRF models present

No finite volume options present

Starting time loop

Selecting finite volume options type scalarSemiImplicitSource
    Source: unitySource
    - selecting all cells
    - selected 6556 cell(s) with volume 0.03165
Time = 1

smoothSolver:  Solving for Ux, Initial residual = 0, Final residual = 0, No Iterations 0
smoothSolver:  Solving for Uy, Initial residual = 1, Final residual = 0.0703785, No Iterations 2
GAMG:  Solving for p, Initial residual = 1, Final residual = 0.0589661, No Iterations 6
time step continuity errors : sum local = 0.00372614, global = -0.0010346, cumulative = -0.0010346
smoothSolver:  Solving for omega, Initial residual = 0.266375, Final residual = 0.0126102, No Iterations 3
smoothSolver:  Solving for k, Initial residual = 1, Final residual = 0.0804118, No Iterations 3
ExecutionTime = 0.04 s  ClockTime = 0 s

scalarTransport execute: age
smoothSolver:  Solving for age, Initial residual = 1, Final residual = 0.0837145, No Iterations 6

Time = 2

smoothSolver:  Solving for Ux, Initial residual = 0.585358, Final residual = 0.049907, No Iterations 6
smoothSolver:  Solving for Uy, Initial residual = 0.28097, Final residual = 0.0191557, No Iterations 6
GAMG:  Solving for p, Initial residual = 0.0506366, Final residual = 0.00474744, No Iterations 3
time step continuity errors : sum local = 0.0623306, global = 0.00354086, cumulative = 0.00250626
smoothSolver:  Solving for omega, Initial residual = 0.262701, Final residual = 0.0248641, No Iterations 3
smoothSolver:  Solving for k, Initial residual = 0.604809, Final residual = 0.0559702, No Iterations 4
ExecutionTime = 0.07 s  ClockTime = 0 s

scalarTransport execute: age
smoothSolver:  Solving for age, Initial residual = 0.589282, Final residual = 0.0582847, No Iterations 7

Time = 3

smoothSolver:  Solving for Ux, Initial residual = 0.224012, Final residual = 0.0150931, No Iterations 6
smoothSolver:  Solving for Uy, Initial residual = 0.106324, Final residual = 0.00950511, No Iterations 5
GAMG:  Solving for p, Initial residual = 0.0533797, Final residual = 0.00340914, No Iterations 3
time step continuity errors : sum local = 0.0194789, global = 0.00143333, cumulative = 0.00393959
smoothSolver:  Solving for omega, Initial residual = 0.263606, Final residual = 0.0251551, No Iterations 4
smoothSolver:  Solving for k, Initial residual = 0.51046, Final residual = 0.0379425, No Iterations 5
ExecutionTime = 0.08 s  ClockTime = 0 s

scalarTransport execute: age
smoothSolver:  Solving for age, Initial residual = 0.399629, Final residual = 0.0356675, No Iterations 9

Time = 4

smoothSolver:  Solving for Ux, Initial residual = 0.112366, Final residual = 0.00973963, No Iterations 4
smoothSolver:  Solving for Uy, Initial residual = 0.0524594, Final residual = 0.00471225, No Iterations 4
GAMG:  Solving for p, Initial residual = 0.0864635, Final residual = 0.00387229, No Iterations 3
time step continuity errors : sum local = 0.0107979, global = 0.000495453, cumulative = 0.00443504
smoothSolver:  Solving for omega, Initial residual = 0.150883, Final residual = 0.0102976, No Iterations 5
smoothSolver:  Solving for k, Initial residual = 0.439662, Final residual = 0.0368364, No Iterations 5
ExecutionTime = 0.09 s  ClockTime = 0 s

scalarTransport execute: age
smoothSolver:  Solving for age, Initial residual = 0.291809, Final residual = 0.0251308, No Iterations 9

Time = 5

smoothSolver:  Solving for Ux, Initial residual = 0.0691837, Final residual = 0.00588996, No Iterations 5
smoothSolver:  Solving for Uy, Initial residual = 0.0311991, Final residual = 0.00209486, No Iterations 5
GAMG:  Solving for p, Initial residual = 0.0768367, Final residual = 0.00322911, No Iterations 2
time step continuity errors : sum local = 0.00806897, global = -6.35394e-05, cumulative = 0.00437151
smoothSolver:  Solving for omega, Initial residual = 0.104805, Final residual = 0.0078565, No Iterations 5
smoothSolver:  Solving for k, Initial residual = 0.343219, Final residual = 0.0311016, No Iterations 5
ExecutionTime = 0.11 s  ClockTime = 0 s

scalarTransport execute: age
smoothSolver:  Solving for age, Initial residual = 0.221366, Final residual = 0.02154, No Iterations 9

Time = 6

smoothSolver:  Solving for Ux, Initial residual = 0.0493747, Final residual = 0.00335111, No Iterations 6
smoothSolver:  Solving for Uy, Initial residual = 0.0239386, Final residual = 0.00184563, No Iterations 5
GAMG:  Solving for p, Initial residual = 0.061322, Final residual = 0.00327688, No Iterations 2
time step continuity errors : sum local = 0.00834671, global = -0.000486058, cumulative = 0.00388545
smoothSolver:  Solving for omega, Initial residual = 0.0823924, Final residual = 0.0066059, No Iterations 5
smoothSolver:  Solving for k, Initial residual = 0.27473, Final residual = 0.0264278, No Iterations 5
ExecutionTime = 0.12 s  ClockTime = 0 s

scalarTransport execute: age
smoothSolver:  Solving for age, Initial residual = 0.177513, Final residual = 0.0164966, No Iterations 10

Time = 7

smoothSolver:  Solving for Ux, Initial residual = 0.0402434, Final residual = 0.00269411, No Iterations 6
smoothSolver:  Solving for Uy, Initial residual = 0.0204072, Final residual = 0.00168279, No Iterations 5
GAMG:  Solving for p, Initial residual = 0.0500034, Final residual = 0.0037689, No Iterations 2
time step continuity errors : sum local = 0.00984463, global = -0.000837972, cumulative = 0.00304747
smoothSolver:  Solving for omega, Initial residual = 0.0632094, Final residual = 0.00542542, No Iterations 5
smoothSolver:  Solving for k, Initial residual = 0.227564, Final residual = 0.0144488, No Iterations 6
ExecutionTime = 0.13 s  ClockTime = 0 s

scalarTransport execute: age
smoothSolver:  Solving for age, Initial residual = 0.147887, Final residual = 0.0126034, No Iterations 11

Time = 8

smoothSolver:  Solving for Ux, Initial residual = 0.0323412, Final residual = 0.00298072, No Iterations 5
smoothSolver:  Solving for Uy, Initial residual = 0.0184168, Final residual = 0.0015863, No Iterations 5
GAMG:  Solving for p, Initial residual = 0.0403029, Final residual = 0.00300888, No Iterations 2
time step continuity errors : sum local = 0.00829313, global = -0.000654942, cumulative = 0.00239253
smoothSolver:  Solving for omega, Initial residual = 0.0510126, Final residual = 0.00453492, No Iterations 5
smoothSolver:  Solving for k, Initial residual = 0.193904, Final residual = 0.0127638, No Iterations 6
ExecutionTime = 0.15 s  ClockTime = 0 s

scalarTransport execute: age
smoothSolver:  Solving for age, Initial residual = 0.128647, Final residual = 0.0112672, No Iterations 11

Time = 9

smoothSolver:  Solving for Ux, Initial residual = 0.0306501, Final residual = 0.0029005, No Iterations 5
smoothSolver:  Solving for Uy, Initial residual = 0.0170073, Final residual = 0.00146419, No Iterations 5
GAMG:  Solving for p, Initial residual = 0.0324108, Final residual = 0.00107152, No Iterations 2
time step continuity errors : sum local = 0.00313154, global = -0.00064257, cumulative = 0.00174996
smoothSolver:  Solving for omega, Initial residual = 0.0424462, Final residual = 0.00388476, No Iterations 5
smoothSolver:  Solving for k, Initial residual = 0.168304, Final residual = 0.0114227, No Iterations 6
ExecutionTime = 0.16 s  ClockTime = 0 s

scalarTransport execute: age
smoothSolver:  Solving for age, Initial residual = 0.112, Final residual = 0.0101609, No Iterations 11

Time = 10

smoothSolver:  Solving for Ux, Initial residual = 0.0272211, Final residual = 0.00269045, No Iterations 5
smoothSolver:  Solving for Uy, Initial residual = 0.0159529, Final residual = 0.0014236, No Iterations 5
GAMG:  Solving for p, Initial residual = 0.027257, Final residual = 0.000788893, No Iterations 2
time step continuity errors : sum local = 0.00233624, global = -0.000473681, cumulative = 0.00127628
smoothSolver:  Solving for omega, Initial residual = 0.0355497, Final residual = 0.00334776, No Iterations 5
smoothSolver:  Solving for k, Initial residual = 0.148328, Final residual = 0.0103205, No Iterations 6
ExecutionTime = 0.17 s  ClockTime = 0 s

scalarTransport execute: age
smoothSolver:  Solving for age, Initial residual = 0.0974525, Final residual = 0.00901581, No Iterations 11

Time = 11

smoothSolver:  Solving for Ux, Initial residual = 0.0252943, Final residual = 0.00167418, No Iterations 6
smoothSolver:  Solving for Uy, Initial residual = 0.0150867, Final residual = 0.00139359, No Iterations 5
GAMG:  Solving for p, Initial residual = 0.0240496, Final residual = 0.000860757, No Iterations 2
time step continuity errors : sum local = 0.00257456, global = -0.000327799, cumulative = 0.000948483
smoothSolver:  Solving for omega, Initial residual = 0.0301829, Final residual = 0.00290638, No Iterations 5
smoothSolver:  Solving for k, Initial residual = 0.132345, Final residual = 0.00939733, No Iterations 6
ExecutionTime = 0.18 s  ClockTime = 0 s

scalarTransport execute: age
smoothSolver:  Solving for age, Initial residual = 0.0849548, Final residual = 0.00811197, No Iterations 11

Time = 12

smoothSolver:  Solving for Ux, Initial residual = 0.0237608, Final residual = 0.00159165, No Iterations 6
smoothSolver:  Solving for Uy, Initial residual = 0.0145104, Final residual = 0.00137179, No Iterations 5
GAMG:  Solving for p, Initial residual = 0.021888, Final residual = 0.000835587, No Iterations 2
time step continuity errors : sum local = 0.00251932, global = -0.000166236, cumulative = 0.000782248
smoothSolver:  Solving for omega, Initial residual = 0.0259501, Final residual = 0.00254491, No Iterations 5
smoothSolver:  Solving for k, Initial residual = 0.119296, Final residual = 0.00861562, No Iterations 6
ExecutionTime = 0.2 s  ClockTime = 0 s

scalarTransport execute: age
smoothSolver:  Solving for age, Initial residual = 0.0740529, Final residual = 0.00733227, No Iterations 11

Time = 13

smoothSolver:  Solving for Ux, Initial residual = 0.022441, Final residual = 0.00151557, No Iterations 6
smoothSolver:  Solving for Uy, Initial residual = 0.0140345, Final residual = 0.00135447, No Iterations 5
GAMG:  Solving for p, Initial residual = 0.020512, Final residual = 0.000773079, No Iterations 2
time step continuity errors : sum local = 0.00234131, global = 8.97144e-06, cumulative = 0.000791219
smoothSolver:  Solving for omega, Initial residual = 0.0225447, Final residual = 0.00224402, No Iterations 5
smoothSolver:  Solving for k, Initial residual = 0.108467, Final residual = 0.00794567, No Iterations 6
ExecutionTime = 0.21 s  ClockTime = 0 s

scalarTransport execute: age
smoothSolver:  Solving for age, Initial residual = 0.0645514, Final residual = 0.00564751, No Iterations 12

Time = 14

smoothSolver:  Solving for Ux, Initial residual = 0.0212428, Final residual = 0.00144017, No Iterations 6
smoothSolver:  Solving for Uy, Initial residual = 0.0136569, Final residual = 0.00133875, No Iterations 5
GAMG:  Solving for p, Initial residual = 0.0194288, Final residual = 0.000738837, No Iterations 2
time step continuity errors : sum local = 0.00223646, global = 0.000164471, cumulative = 0.00095569
smoothSolver:  Solving for omega, Initial residual = 0.0197757, Final residual = 0.00127332, No Iterations 6
smoothSolver:  Solving for k, Initial residual = 0.0991082, Final residual = 0.00735099, No Iterations 6
ExecutionTime = 0.22 s  ClockTime = 0 s

scalarTransport execute: age
smoothSolver:  Solving for age, Initial residual = 0.0562369, Final residual = 0.00507934, No Iterations 12

Time = 15

smoothSolver:  Solving for Ux, Initial residual = 0.020075, Final residual = 0.0013628, No Iterations 6
smoothSolver:  Solving for Uy, Initial residual = 0.0133342, Final residual = 0.00131967, No Iterations 5
GAMG:  Solving for p, Initial residual = 0.0185246, Final residual = 0.000715376, No Iterations 2
time step continuity errors : sum local = 0.00215968, global = 0.000281967, cumulative = 0.00123766
smoothSolver:  Solving for omega, Initial residual = 0.0173348, Final residual = 0.00113084, No Iterations 6
smoothSolver:  Solving for k, Initial residual = 0.0910254, Final residual = 0.00682672, No Iterations 6
ExecutionTime = 0.24 s  ClockTime = 0 s

scalarTransport execute: age
smoothSolver:  Solving for age, Initial residual = 0.0492206, Final residual = 0.00456524, No Iterations 12

Time = 16

smoothSolver:  Solving for Ux, Initial residual = 0.0190098, Final residual = 0.00128728, No Iterations 6
smoothSolver:  Solving for Uy, Initial residual = 0.0130591, Final residual = 0.00129968, No Iterations 5
GAMG:  Solving for p, Initial residual = 0.0178041, Final residual = 0.000716365, No Iterations 2
time step continuity errors : sum local = 0.00214945, global = 0.000350043, cumulative = 0.0015877
smoothSolver:  Solving for omega, Initial residual = 0.0153173, Final residual = 0.0010104, No Iterations 6
smoothSolver:  Solving for k, Initial residual = 0.0841272, Final residual = 0.00636879, No Iterations 6
ExecutionTime = 0.25 s  ClockTime = 0 s

scalarTransport execute: age
smoothSolver:  Solving for age, Initial residual = 0.0432174, Final residual = 0.00408774, No Iterations 12

Time = 17

smoothSolver:  Solving for Ux, Initial residual = 0.0180258, Final residual = 0.00121951, No Iterations 6
smoothSolver:  Solving for Uy, Initial residual = 0.0128299, Final residual = 0.00127909, No Iterations 5
GAMG:  Solving for p, Initial residual = 0.0171723, Final residual = 0.00071067, No Iterations 2
time step continuity errors : sum local = 0.00211487, global = 0.000374182, cumulative = 0.00196188
smoothSolver:  Solving for omega, Initial residual = 0.013633, Final residual = 0.000907634, No Iterations 6
smoothSolver:  Solving for k, Initial residual = 0.0781736, Final residual = 0.00596554, No Iterations 6
ExecutionTime = 0.26 s  ClockTime = 0 s

scalarTransport execute: age
smoothSolver:  Solving for age, Initial residual = 0.0381679, Final residual = 0.00364272, No Iterations 12

Time = 18

smoothSolver:  Solving for Ux, Initial residual = 0.0171301, Final residual = 0.00115897, No Iterations 6
smoothSolver:  Solving for Uy, Initial residual = 0.0126271, Final residual = 0.00125819, No Iterations 5
GAMG:  Solving for p, Initial residual = 0.0165945, Final residual = 0.000681813, No Iterations 2
time step continuity errors : sum local = 0.00200962, global = 0.000371038, cumulative = 0.00233292
smoothSolver:  Solving for omega, Initial residual = 0.0122187, Final residual = 0.000819307, No Iterations 6
smoothSolver:  Solving for k, Initial residual = 0.072972, Final residual = 0.00560735, No Iterations 6
ExecutionTime = 0.28 s  ClockTime = 0 s

scalarTransport execute: age
smoothSolver:  Solving for age, Initial residual = 0.0337173, Final residual = 0.00323439, No Iterations 12

Time = 19

smoothSolver:  Solving for Ux, Initial residual = 0.0163193, Final residual = 0.00110642, No Iterations 6
smoothSolver:  Solving for Uy, Initial residual = 0.012398, Final residual = 0.00123713, No Iterations 5
GAMG:  Solving for p, Initial residual = 0.0160358, Final residual = 0.000653228, No Iterations 2
time step continuity errors : sum local = 0.00190549, global = 0.000361937, cumulative = 0.00269486
smoothSolver:  Solving for omega, Initial residual = 0.0110257, Final residual = 0.000743041, No Iterations 6
smoothSolver:  Solving for k, Initial residual = 0.0683923, Final residual = 0.0052871, No Iterations 6
ExecutionTime = 0.29 s  ClockTime = 0 s

scalarTransport execute: age
smoothSolver:  Solving for age, Initial residual = 0.0300153, Final residual = 0.00285957, No Iterations 12

Time = 20

smoothSolver:  Solving for Ux, Initial residual = 0.0156169, Final residual = 0.00106078, No Iterations 6
smoothSolver:  Solving for Uy, Initial residual = 0.0121772, Final residual = 0.00121518, No Iterations 5
GAMG:  Solving for p, Initial residual = 0.0154807, Final residual = 0.000618047, No Iterations 2
time step continuity errors : sum local = 0.00178426, global = 0.000347327, cumulative = 0.00304218
smoothSolver:  Solving for omega, Initial residual = 0.0100039, Final residual = 0.000676815, No Iterations 6
smoothSolver:  Solving for k, Initial residual = 0.0643249, Final residual = 0.00499887, No Iterations 6
ExecutionTime = 0.3 s  ClockTime = 0 s

scalarTransport execute: age
smoothSolver:  Solving for age, Initial residual = 0.0266509, Final residual = 0.00250039, No Iterations 12

Time = 21

smoothSolver:  Solving for Ux, Initial residual = 0.0149969, Final residual = 0.00102143, No Iterations 6
smoothSolver:  Solving for Uy, Initial residual = 0.0119239, Final residual = 0.0011919, No Iterations 5
GAMG:  Solving for p, Initial residual = 0.0149288, Final residual = 0.000585521, No Iterations 2
time step continuity errors : sum local = 0.001673, global = 0.000330219, cumulative = 0.0033724
smoothSolver:  Solving for omega, Initial residual = 0.00912045, Final residual = 0.000618954, No Iterations 6
smoothSolver:  Solving for k, Initial residual = 0.0606853, Final residual = 0.00473791, No Iterations 6
ExecutionTime = 0.32 s  ClockTime = 0 s

scalarTransport execute: age
smoothSolver:  Solving for age, Initial residual = 0.0238771, Final residual = 0.00217172, No Iterations 12

Time = 22

smoothSolver:  Solving for Ux, Initial residual = 0.014468, Final residual = 0.00098691, No Iterations 6
smoothSolver:  Solving for Uy, Initial residual = 0.0116384, Final residual = 0.000761115, No Iterations 6
GAMG:  Solving for p, Initial residual = 0.0143273, Final residual = 0.000562239, No Iterations 2
time step continuity errors : sum local = 0.00158999, global = 0.000315934, cumulative = 0.00368834
smoothSolver:  Solving for omega, Initial residual = 0.00835024, Final residual = 0.00056807, No Iterations 6
smoothSolver:  Solving for k, Initial residual = 0.0574124, Final residual = 0.00450064, No Iterations 6
ExecutionTime = 0.33 s  ClockTime = 0 s

scalarTransport execute: age
smoothSolver:  Solving for age, Initial residual = 0.021426, Final residual = 0.00185504, No Iterations 12

Time = 23

smoothSolver:  Solving for Ux, Initial residual = 0.0140492, Final residual = 0.000959882, No Iterations 6
smoothSolver:  Solving for Uy, Initial residual = 0.0112579, Final residual = 0.000737333, No Iterations 6
GAMG:  Solving for p, Initial residual = 0.013697, Final residual = 0.000537598, No Iterations 2
time step continuity errors : sum local = 0.00150618, global = 0.000302689, cumulative = 0.00399103
smoothSolver:  Solving for omega, Initial residual = 0.00767427, Final residual = 0.000523105, No Iterations 6
smoothSolver:  Solving for k, Initial residual = 0.0544551, Final residual = 0.00428418, No Iterations 6
ExecutionTime = 0.34 s  ClockTime = 0 s

scalarTransport execute: age
smoothSolver:  Solving for age, Initial residual = 0.019307, Final residual = 0.00185589, No Iterations 11

Time = 24

smoothSolver:  Solving for Ux, Initial residual = 0.0136429, Final residual = 0.000934312, No Iterations 6
smoothSolver:  Solving for Uy, Initial residual = 0.0108862, Final residual = 0.000714756, No Iterations 6
GAMG:  Solving for p, Initial residual = 0.0129932, Final residual = 0.000514914, No Iterations 2
time step continuity errors : sum local = 0.00143072, global = 0.000289593, cumulative = 0.00428062
smoothSolver:  Solving for omega, Initial residual = 0.00707596, Final residual = 0.000483171, No Iterations 6
smoothSolver:  Solving for k, Initial residual = 0.0517641, Final residual = 0.00408546, No Iterations 6
ExecutionTime = 0.36 s  ClockTime = 0 s

scalarTransport execute: age
smoothSolver:  Solving for age, Initial residual = 0.0175091, Final residual = 0.00158197, No Iterations 11

Time = 25

smoothSolver:  Solving for Ux, Initial residual = 0.0132514, Final residual = 0.000910758, No Iterations 6
smoothSolver:  Solving for Uy, Initial residual = 0.0105366, Final residual = 0.000694006, No Iterations 6
GAMG:  Solving for p, Initial residual = 0.0122973, Final residual = 0.000493452, No Iterations 2
time step continuity errors : sum local = 0.00136057, global = 0.00027714, cumulative = 0.00455776
smoothSolver:  Solving for omega, Initial residual = 0.00654427, Final residual = 0.000447541, No Iterations 6
smoothSolver:  Solving for k, Initial residual = 0.0493056, Final residual = 0.00390242, No Iterations 6
ExecutionTime = 0.37 s  ClockTime = 0 s

scalarTransport execute: age
smoothSolver:  Solving for age, Initial residual = 0.015996, Final residual = 0.00134753, No Iterations 11

Time = 26

smoothSolver:  Solving for Ux, Initial residual = 0.0129009, Final residual = 0.000889871, No Iterations 6
smoothSolver:  Solving for Uy, Initial residual = 0.0102063, Final residual = 0.000674194, No Iterations 6
GAMG:  Solving for p, Initial residual = 0.0116438, Final residual = 0.0004723, No Iterations 2
time step continuity errors : sum local = 0.00129259, global = 0.000265302, cumulative = 0.00482306
smoothSolver:  Solving for omega, Initial residual = 0.00607221, Final residual = 0.000415654, No Iterations 6
smoothSolver:  Solving for k, Initial residual = 0.0470466, Final residual = 0.00373295, No Iterations 6
ExecutionTime = 0.38 s  ClockTime = 0 s

scalarTransport execute: age
smoothSolver:  Solving for age, Initial residual = 0.0147034, Final residual = 0.00138333, No Iterations 10

Time = 27

smoothSolver:  Solving for Ux, Initial residual = 0.0125962, Final residual = 0.000872399, No Iterations 6
smoothSolver:  Solving for Uy, Initial residual = 0.00990027, Final residual = 0.00065408, No Iterations 6
GAMG:  Solving for p, Initial residual = 0.011204, Final residual = 0.000450987, No Iterations 2
time step continuity errors : sum local = 0.001226, global = 0.000254269, cumulative = 0.00507733
smoothSolver:  Solving for omega, Initial residual = 0.00565223, Final residual = 0.000386903, No Iterations 6
smoothSolver:  Solving for k, Initial residual = 0.0449642, Final residual = 0.00357559, No Iterations 6
ExecutionTime = 0.39 s  ClockTime = 0 s

scalarTransport execute: age
smoothSolver:  Solving for age, Initial residual = 0.0136959, Final residual = 0.0012311, No Iterations 10

Time = 28

smoothSolver:  Solving for Ux, Initial residual = 0.0123261, Final residual = 0.000858002, No Iterations 6
smoothSolver:  Solving for Uy, Initial residual = 0.00961466, Final residual = 0.000633491, No Iterations 6
GAMG:  Solving for p, Initial residual = 0.0111179, Final residual = 0.000430962, No Iterations 2
time step continuity errors : sum local = 0.00116504, global = 0.000244655, cumulative = 0.00532198
smoothSolver:  Solving for omega, Initial residual = 0.00528414, Final residual = 0.000361, No Iterations 6
smoothSolver:  Solving for k, Initial residual = 0.0430316, Final residual = 0.0034285, No Iterations 6
ExecutionTime = 0.41 s  ClockTime = 0 s

scalarTransport execute: age
smoothSolver:  Solving for age, Initial residual = 0.0129341, Final residual = 0.00111859, No Iterations 10

Time = 29

smoothSolver:  Solving for Ux, Initial residual = 0.012105, Final residual = 0.000846946, No Iterations 6
smoothSolver:  Solving for Uy, Initial residual = 0.00934061, Final residual = 0.000613059, No Iterations 6
GAMG:  Solving for p, Initial residual = 0.011186, Final residual = 0.000414865, No Iterations 2
time step continuity errors : sum local = 0.00111629, global = 0.000236987, cumulative = 0.00555897
smoothSolver:  Solving for omega, Initial residual = 0.00494928, Final residual = 0.000337709, No Iterations 6
smoothSolver:  Solving for k, Initial residual = 0.0412302, Final residual = 0.00329062, No Iterations 6
ExecutionTime = 0.42 s  ClockTime = 0 s

scalarTransport execute: age
smoothSolver:  Solving for age, Initial residual = 0.0122831, Final residual = 0.00104114, No Iterations 10

Time = 30

smoothSolver:  Solving for Ux, Initial residual = 0.0119573, Final residual = 0.000839029, No Iterations 6
smoothSolver:  Solving for Uy, Initial residual = 0.00907361, Final residual = 0.000591864, No Iterations 6
GAMG:  Solving for p, Initial residual = 0.0113317, Final residual = 0.000413993, No Iterations 2
time step continuity errors : sum local = 0.00110834, global = 0.000230834, cumulative = 0.00578981
smoothSolver:  Solving for omega, Initial residual = 0.00464861, Final residual = 0.000316546, No Iterations 6
smoothSolver:  Solving for k, Initial residual = 0.0395469, Final residual = 0.00316115, No Iterations 6
ExecutionTime = 0.43 s  ClockTime = 0 s

scalarTransport execute: age
smoothSolver:  Solving for age, Initial residual = 0.0117992, Final residual = 0.000997249, No Iterations 10

Time = 31

smoothSolver:  Solving for Ux, Initial residual = 0.0118745, Final residual = 0.000833636, No Iterations 6
smoothSolver:  Solving for Uy, Initial residual = 0.00880038, Final residual = 0.000876462, No Iterations 5
GAMG:  Solving for p, Initial residual = 0.0112996, Final residual = 0.000422739, No Iterations 2
time step continuity errors : sum local = 0.00112464, global = 0.00022426, cumulative = 0.00601407
smoothSolver:  Solving for omega, Initial residual = 0.00437681, Final residual = 0.000297239, No Iterations 6
smoothSolver:  Solving for k, Initial residual = 0.0379689, Final residual = 0.0030393, No Iterations 6
ExecutionTime = 0.45 s  ClockTime = 0 s

scalarTransport execute: age
smoothSolver:  Solving for age, Initial residual = 0.0113934, Final residual = 0.00098305, No Iterations 10

Time = 32

smoothSolver:  Solving for Ux, Initial residual = 0.0118099, Final residual = 0.000828478, No Iterations 6
smoothSolver:  Solving for Uy, Initial residual = 0.00858549, Final residual = 0.000853094, No Iterations 5
GAMG:  Solving for p, Initial residual = 0.0111803, Final residual = 0.000432997, No Iterations 2
time step continuity errors : sum local = 0.00114624, global = 0.000218213, cumulative = 0.00623228
smoothSolver:  Solving for omega, Initial residual = 0.00412814, Final residual = 0.000279595, No Iterations 6
smoothSolver:  Solving for k, Initial residual = 0.0364796, Final residual = 0.00292403, No Iterations 6
ExecutionTime = 0.46 s  ClockTime = 0 s

scalarTransport execute: age
smoothSolver:  Solving for age, Initial residual = 0.011133, Final residual = 0.000988051, No Iterations 10

Time = 33

smoothSolver:  Solving for Ux, Initial residual = 0.0118028, Final residual = 0.000826574, No Iterations 6
smoothSolver:  Solving for Uy, Initial residual = 0.00832843, Final residual = 0.000824589, No Iterations 5
GAMG:  Solving for p, Initial residual = 0.0109848, Final residual = 0.00044147, No Iterations 2
time step continuity errors : sum local = 0.00116366, global = 0.000212777, cumulative = 0.00644506
smoothSolver:  Solving for omega, Initial residual = 0.00389882, Final residual = 0.000263401, No Iterations 6
smoothSolver:  Solving for k, Initial residual = 0.0350745, Final residual = 0.00281507, No Iterations 6
ExecutionTime = 0.47 s  ClockTime = 0 s

scalarTransport execute: age
smoothSolver:  Solving for age, Initial residual = 0.0109496, Final residual = 0.00100611, No Iterations 10

Time = 34

smoothSolver:  Solving for Ux, Initial residual = 0.0118367, Final residual = 0.000827131, No Iterations 6
smoothSolver:  Solving for Uy, Initial residual = 0.00801952, Final residual = 0.000791381, No Iterations 5
GAMG:  Solving for p, Initial residual = 0.010718, Final residual = 0.000443222, No Iterations 2
time step continuity errors : sum local = 0.00116354, global = 0.000207438, cumulative = 0.00665249
smoothSolver:  Solving for omega, Initial residual = 0.00368852, Final residual = 0.000248456, No Iterations 6
smoothSolver:  Solving for k, Initial residual = 0.0337457, Final residual = 0.00271182, No Iterations 6
ExecutionTime = 0.49 s  ClockTime = 0 s

scalarTransport execute: age
smoothSolver:  Solving for age, Initial residual = 0.0108482, Final residual = 0.00102521, No Iterations 10

Time = 35

smoothSolver:  Solving for Ux, Initial residual = 0.0118972, Final residual = 0.000829602, No Iterations 6
smoothSolver:  Solving for Uy, Initial residual = 0.007686, Final residual = 0.000756, No Iterations 5
GAMG:  Solving for p, Initial residual = 0.0104854, Final residual = 0.000434901, No Iterations 2
time step continuity errors : sum local = 0.00113746, global = 0.000196257, cumulative = 0.00684875
smoothSolver:  Solving for omega, Initial residual = 0.00349579, Final residual = 0.000234651, No Iterations 6
smoothSolver:  Solving for k, Initial residual = 0.0324886, Final residual = 0.00261401, No Iterations 6
ExecutionTime = 0.5 s  ClockTime = 0 s

scalarTransport execute: age
smoothSolver:  Solving for age, Initial residual = 0.0107919, Final residual = 0.00104028, No Iterations 10

Time = 36

smoothSolver:  Solving for Ux, Initial residual = 0.0119705, Final residual = 0.000833757, No Iterations 6
smoothSolver:  Solving for Uy, Initial residual = 0.00734263, Final residual = 0.000720395, No Iterations 5
GAMG:  Solving for p, Initial residual = 0.0101423, Final residual = 0.00042691, No Iterations 2
time step continuity errors : sum local = 0.00111125, global = 0.000185317, cumulative = 0.00703407
smoothSolver:  Solving for omega, Initial residual = 0.00332198, Final residual = 0.000221779, No Iterations 6
smoothSolver:  Solving for k, Initial residual = 0.0313003, Final residual = 0.0025214, No Iterations 6
ExecutionTime = 0.51 s  ClockTime = 0 s

scalarTransport execute: age
smoothSolver:  Solving for age, Initial residual = 0.0107606, Final residual = 0.00105749, No Iterations 10

Time = 37

smoothSolver:  Solving for Ux, Initial residual = 0.0120313, Final residual = 0.000837749, No Iterations 6
smoothSolver:  Solving for Uy, Initial residual = 0.00700895, Final residual = 0.00068584, No Iterations 5
GAMG:  Solving for p, Initial residual = 0.00989941, Final residual = 0.000421409, No Iterations 2
time step continuity errors : sum local = 0.00109327, global = 0.000175267, cumulative = 0.00720934
smoothSolver:  Solving for omega, Initial residual = 0.0031551, Final residual = 0.000209871, No Iterations 6
smoothSolver:  Solving for k, Initial residual = 0.0301716, Final residual = 0.00243363, No Iterations 6
ExecutionTime = 0.52 s  ClockTime = 0 s

scalarTransport execute: age
smoothSolver:  Solving for age, Initial residual = 0.0107073, Final residual = 0.00106746, No Iterations 10

Time = 38

smoothSolver:  Solving for Ux, Initial residual = 0.012083, Final residual = 0.000841681, No Iterations 6
smoothSolver:  Solving for Uy, Initial residual = 0.0067048, Final residual = 0.000653334, No Iterations 5
GAMG:  Solving for p, Initial residual = 0.00977831, Final residual = 0.000424526, No Iterations 2
time step continuity errors : sum local = 0.00109827, global = 0.000166687, cumulative = 0.00737602
smoothSolver:  Solving for omega, Initial residual = 0.0029948, Final residual = 0.000198564, No Iterations 6
smoothSolver:  Solving for k, Initial residual = 0.0291027, Final residual = 0.0023505, No Iterations 6
ExecutionTime = 0.54 s  ClockTime = 0 s

scalarTransport execute: age
smoothSolver:  Solving for age, Initial residual = 0.0106189, Final residual = 0.000927913, No Iterations 11

Time = 39

smoothSolver:  Solving for Ux, Initial residual = 0.0121181, Final residual = 0.000845037, No Iterations 6
smoothSolver:  Solving for Uy, Initial residual = 0.00642656, Final residual = 0.000623343, No Iterations 5
GAMG:  Solving for p, Initial residual = 0.00971391, Final residual = 0.000440072, No Iterations 2
time step continuity errors : sum local = 0.00113656, global = 0.000160116, cumulative = 0.00753614
smoothSolver:  Solving for omega, Initial residual = 0.00285671, Final residual = 0.000187909, No Iterations 6
smoothSolver:  Solving for k, Initial residual = 0.028095, Final residual = 0.00227177, No Iterations 6
ExecutionTime = 0.55 s  ClockTime = 0 s

scalarTransport execute: age
smoothSolver:  Solving for age, Initial residual = 0.0106078, Final residual = 0.000942542, No Iterations 11

Time = 40

smoothSolver:  Solving for Ux, Initial residual = 0.0121799, Final residual = 0.000847936, No Iterations 6
smoothSolver:  Solving for Uy, Initial residual = 0.00616853, Final residual = 0.000596068, No Iterations 5
GAMG:  Solving for p, Initial residual = 0.00964134, Final residual = 0.000465297, No Iterations 2
time step continuity errors : sum local = 0.00120064, global = 0.000155783, cumulative = 0.00769192
smoothSolver:  Solving for omega, Initial residual = 0.00272342, Final residual = 0.000178035, No Iterations 6
smoothSolver:  Solving for k, Initial residual = 0.0271427, Final residual = 0.00219702, No Iterations 6
ExecutionTime = 0.56 s  ClockTime = 0 s

scalarTransport execute: age
smoothSolver:  Solving for age, Initial residual = 0.0105287, Final residual = 0.000961738, No Iterations 11

Time = 41

smoothSolver:  Solving for Ux, Initial residual = 0.0122658, Final residual = 0.000850606, No Iterations 6
smoothSolver:  Solving for Uy, Initial residual = 0.00593336, Final residual = 0.000572101, No Iterations 5
GAMG:  Solving for p, Initial residual = 0.00958078, Final residual = 0.000497543, No Iterations 2
time step continuity errors : sum local = 0.00128302, global = 0.000158056, cumulative = 0.00784998
smoothSolver:  Solving for omega, Initial residual = 0.00260026, Final residual = 0.000168848, No Iterations 6
smoothSolver:  Solving for k, Initial residual = 0.0262423, Final residual = 0.00212592, No Iterations 6
ExecutionTime = 0.58 s  ClockTime = 0 s

scalarTransport execute: age
smoothSolver:  Solving for age, Initial residual = 0.0104969, Final residual = 0.000983819, No Iterations 11

Time = 42

smoothSolver:  Solving for Ux, Initial residual = 0.0123425, Final residual = 0.000852274, No Iterations 6
smoothSolver:  Solving for Uy, Initial residual = 0.00573117, Final residual = 0.000551548, No Iterations 5
GAMG:  Solving for p, Initial residual = 0.00955126, Final residual = 0.000525334, No Iterations 2
time step continuity errors : sum local = 0.00135493, global = 0.000162877, cumulative = 0.00801285
smoothSolver:  Solving for omega, Initial residual = 0.00248611, Final residual = 0.000247022, No Iterations 5
smoothSolver:  Solving for k, Initial residual = 0.0254103, Final residual = 0.00205973, No Iterations 6
ExecutionTime = 0.59 s  ClockTime = 0 s

scalarTransport execute: age
smoothSolver:  Solving for age, Initial residual = 0.0104306, Final residual = 0.00100347, No Iterations 11

Time = 43

smoothSolver:  Solving for Ux, Initial residual = 0.0124289, Final residual = 0.000855192, No Iterations 6
smoothSolver:  Solving for Uy, Initial residual = 0.00556731, Final residual = 0.000534868, No Iterations 5
GAMG:  Solving for p, Initial residual = 0.00957181, Final residual = 0.000551951, No Iterations 2
time step continuity errors : sum local = 0.00142458, global = 0.000169481, cumulative = 0.00818233
smoothSolver:  Solving for omega, Initial residual = 0.00239082, Final residual = 0.000235749, No Iterations 5
smoothSolver:  Solving for k, Initial residual = 0.024631, Final residual = 0.00199724, No Iterations 6
ExecutionTime = 0.6 s  ClockTime = 0 s

scalarTransport execute: age
smoothSolver:  Solving for age, Initial residual = 0.0103784, Final residual = 0.00102748, No Iterations 11

Time = 44

smoothSolver:  Solving for Ux, Initial residual = 0.0125049, Final residual = 0.00085839, No Iterations 6
smoothSolver:  Solving for Uy, Initial residual = 0.00543892, Final residual = 0.000521936, No Iterations 5
GAMG:  Solving for p, Initial residual = 0.00961063, Final residual = 0.000575275, No Iterations 2
time step continuity errors : sum local = 0.00148628, global = 0.000176629, cumulative = 0.00835896
smoothSolver:  Solving for omega, Initial residual = 0.00230101, Final residual = 0.000225067, No Iterations 5
smoothSolver:  Solving for k, Initial residual = 0.0238892, Final residual = 0.00193745, No Iterations 6
ExecutionTime = 0.61 s  ClockTime = 0 s

scalarTransport execute: age
smoothSolver:  Solving for age, Initial residual = 0.0103028, Final residual = 0.000893857, No Iterations 12

Time = 45

smoothSolver:  Solving for Ux, Initial residual = 0.0125722, Final residual = 0.000861875, No Iterations 6
smoothSolver:  Solving for Uy, Initial residual = 0.00534294, Final residual = 0.00051279, No Iterations 5
GAMG:  Solving for p, Initial residual = 0.00965856, Final residual = 0.000594902, No Iterations 2
time step continuity errors : sum local = 0.00153937, global = 0.000182944, cumulative = 0.00854191
smoothSolver:  Solving for omega, Initial residual = 0.00221748, Final residual = 0.000214917, No Iterations 5
smoothSolver:  Solving for k, Initial residual = 0.023181, Final residual = 0.00188014, No Iterations 6
ExecutionTime = 0.63 s  ClockTime = 0 s

scalarTransport execute: age
smoothSolver:  Solving for age, Initial residual = 0.0103406, Final residual = 0.000948364, No Iterations 12

Time = 46

smoothSolver:  Solving for Ux, Initial residual = 0.0126404, Final residual = 0.000865801, No Iterations 6
smoothSolver:  Solving for Uy, Initial residual = 0.00528057, Final residual = 0.000507962, No Iterations 5
GAMG:  Solving for p, Initial residual = 0.00969067, Final residual = 0.000612366, No Iterations 2
time step continuity errors : sum local = 0.00158652, global = 0.000188442, cumulative = 0.00873035
smoothSolver:  Solving for omega, Initial residual = 0.0021419, Final residual = 0.000205326, No Iterations 5
smoothSolver:  Solving for k, Initial residual = 0.0225057, Final residual = 0.00182518, No Iterations 6
ExecutionTime = 0.64 s  ClockTime = 0 s

scalarTransport execute: age
smoothSolver:  Solving for age, Initial residual = 0.0106583, Final residual = 0.0010343, No Iterations 12

Time = 47

smoothSolver:  Solving for Ux, Initial residual = 0.0127029, Final residual = 0.00087012, No Iterations 6
smoothSolver:  Solving for Uy, Initial residual = 0.00525406, Final residual = 0.000507825, No Iterations 5
GAMG:  Solving for p, Initial residual = 0.00974619, Final residual = 0.000626269, No Iterations 2
time step continuity errors : sum local = 0.00162306, global = 0.000191487, cumulative = 0.00892184
smoothSolver:  Solving for omega, Initial residual = 0.00207148, Final residual = 0.00019636, No Iterations 5
smoothSolver:  Solving for k, Initial residual = 0.021863, Final residual = 0.00177263, No Iterations 6
ExecutionTime = 0.65 s  ClockTime = 0 s

scalarTransport execute: age
smoothSolver:  Solving for age, Initial residual = 0.0109836, Final residual = 0.00107844, No Iterations 14

Time = 48

smoothSolver:  Solving for Ux, Initial residual = 0.0127764, Final residual = 0.000874941, No Iterations 6
smoothSolver:  Solving for Uy, Initial residual = 0.00525866, Final residual = 0.000511486, No Iterations 5
GAMG:  Solving for p, Initial residual = 0.00980811, Final residual = 0.000639372, No Iterations 2
time step continuity errors : sum local = 0.00165746, global = 0.000192732, cumulative = 0.00911457
smoothSolver:  Solving for omega, Initial residual = 0.00199808, Final residual = 0.000187781, No Iterations 5
smoothSolver:  Solving for k, Initial residual = 0.0212481, Final residual = 0.00172225, No Iterations 6
ExecutionTime = 0.67 s  ClockTime = 0 s

scalarTransport execute: age
smoothSolver:  Solving for age, Initial residual = 0.0132658, Final residual = 0.00122077, No Iterations 12

Time = 49

smoothSolver:  Solving for Ux, Initial residual = 0.0128556, Final residual = 0.000880026, No Iterations 6
smoothSolver:  Solving for Uy, Initial residual = 0.00528802, Final residual = 0.000518492, No Iterations 5
GAMG:  Solving for p, Initial residual = 0.00981529, Final residual = 0.00065307, No Iterations 2
time step continuity errors : sum local = 0.00169504, global = 0.000192416, cumulative = 0.00930699
smoothSolver:  Solving for omega, Initial residual = 0.00193258, Final residual = 0.000179754, No Iterations 5
smoothSolver:  Solving for k, Initial residual = 0.0206575, Final residual = 0.00167379, No Iterations 6
ExecutionTime = 0.68 s  ClockTime = 0 s

scalarTransport execute: age
smoothSolver:  Solving for age, Initial residual = 0.0128911, Final residual = 0.00126436, No Iterations 11

Time = 50

smoothSolver:  Solving for Ux, Initial residual = 0.0129299, Final residual = 0.000885318, No Iterations 6
smoothSolver:  Solving for Uy, Initial residual = 0.0053433, Final residual = 0.000528153, No Iterations 5
GAMG:  Solving for p, Initial residual = 0.00981626, Final residual = 0.000661251, No Iterations 2
time step continuity errors : sum local = 0.00171818, global = 0.000191398, cumulative = 0.00949838
smoothSolver:  Solving for omega, Initial residual = 0.00186948, Final residual = 0.000172296, No Iterations 5
smoothSolver:  Solving for k, Initial residual = 0.020091, Final residual = 0.00162718, No Iterations 6
ExecutionTime = 0.68 s  ClockTime = 0 s

scalarTransport execute: age
smoothSolver:  Solving for age, Initial residual = 0.0129856, Final residual = 0.00126386, No Iterations 11

Time = 51

smoothSolver:  Solving for Ux, Initial residual = 0.0129928, Final residual = 0.000890427, No Iterations 6
smoothSolver:  Solving for Uy, Initial residual = 0.00540629, Final residual = 0.000540419, No Iterations 5
GAMG:  Solving for p, Initial residual = 0.0100827, Final residual = 0.000664421, No Iterations 2
time step continuity errors : sum local = 0.00173026, global = 0.000189373, cumulative = 0.00968776
smoothSolver:  Solving for omega, Initial residual = 0.00180793, Final residual = 0.000165232, No Iterations 5
smoothSolver:  Solving for k, Initial residual = 0.0195454, Final residual = 0.00158227, No Iterations 6
ExecutionTime = 0.71 s  ClockTime = 0 s

scalarTransport execute: age
smoothSolver:  Solving for age, Initial residual = 0.0130719, Final residual = 0.00129633, No Iterations 11

Time = 52

smoothSolver:  Solving for Ux, Initial residual = 0.0130578, Final residual = 0.000895042, No Iterations 6
smoothSolver:  Solving for Uy, Initial residual = 0.00549621, Final residual = 0.000361385, No Iterations 6
GAMG:  Solving for p, Initial residual = 0.0104661, Final residual = 0.000669725, No Iterations 2
time step continuity errors : sum local = 0.0017551, global = 0.000189458, cumulative = 0.00987721
smoothSolver:  Solving for omega, Initial residual = 0.00175449, Final residual = 0.000158542, No Iterations 5
smoothSolver:  Solving for k, Initial residual = 0.0190215, Final residual = 0.00153892, No Iterations 6
ExecutionTime = 0.72 s  ClockTime = 0 s

scalarTransport execute: age
smoothSolver:  Solving for age, Initial residual = 0.0129137, Final residual = 0.00115, No Iterations 12

Time = 53

smoothSolver:  Solving for Ux, Initial residual = 0.0131055, Final residual = 0.000899039, No Iterations 6
smoothSolver:  Solving for Uy, Initial residual = 0.0055475, Final residual = 0.000368029, No Iterations 6
GAMG:  Solving for p, Initial residual = 0.01095, Final residual = 0.000683345, No Iterations 2
time step continuity errors : sum local = 0.00181615, global = 0.000191778, cumulative = 0.010069
smoothSolver:  Solving for omega, Initial residual = 0.0017009, Final residual = 0.000152034, No Iterations 5
smoothSolver:  Solving for k, Initial residual = 0.0185164, Final residual = 0.001497, No Iterations 6
ExecutionTime = 0.73 s  ClockTime = 0 s

scalarTransport execute: age
smoothSolver:  Solving for age, Initial residual = 0.012989, Final residual = 0.00115821, No Iterations 12

Time = 54

smoothSolver:  Solving for Ux, Initial residual = 0.0131227, Final residual = 0.000901613, No Iterations 6
smoothSolver:  Solving for Uy, Initial residual = 0.00565081, Final residual = 0.000377487, No Iterations 6
GAMG:  Solving for p, Initial residual = 0.011089, Final residual = 0.000712659, No Iterations 2
time step continuity errors : sum local = 0.00187519, global = 0.00019946, cumulative = 0.0102685
smoothSolver:  Solving for omega, Initial residual = 0.0016414, Final residual = 0.000145898, No Iterations 5
smoothSolver:  Solving for k, Initial residual = 0.0180289, Final residual = 0.00145649, No Iterations 6
ExecutionTime = 0.74 s  ClockTime = 0 s

scalarTransport execute: age
smoothSolver:  Solving for age, Initial residual = 0.0132616, Final residual = 0.00121717, No Iterations 12

Time = 55

smoothSolver:  Solving for Ux, Initial residual = 0.0131333, Final residual = 0.000903769, No Iterations 6
smoothSolver:  Solving for Uy, Initial residual = 0.00578395, Final residual = 0.000390076, No Iterations 6
GAMG:  Solving for p, Initial residual = 0.0112356, Final residual = 0.000718383, No Iterations 2
time step continuity errors : sum local = 0.0018723, global = 0.000207892, cumulative = 0.0104763
smoothSolver:  Solving for omega, Initial residual = 0.00159284, Final residual = 0.000139825, No Iterations 5
smoothSolver:  Solving for k, Initial residual = 0.0175572, Final residual = 0.00141735, No Iterations 6
ExecutionTime = 0.76 s  ClockTime = 0 s

scalarTransport execute: age
smoothSolver:  Solving for age, Initial residual = 0.0136009, Final residual = 0.0012826, No Iterations 12

Time = 56

smoothSolver:  Solving for Ux, Initial residual = 0.0131487, Final residual = 0.000905239, No Iterations 6
smoothSolver:  Solving for Uy, Initial residual = 0.00594831, Final residual = 0.00040453, No Iterations 6
GAMG:  Solving for p, Initial residual = 0.0112015, Final residual = 0.000690146, No Iterations 2
time step continuity errors : sum local = 0.00177796, global = 0.000215477, cumulative = 0.0106918
smoothSolver:  Solving for omega, Initial residual = 0.00154877, Final residual = 0.00013366, No Iterations 5
smoothSolver:  Solving for k, Initial residual = 0.0170977, Final residual = 0.00137952, No Iterations 6
ExecutionTime = 0.77 s  ClockTime = 0 s

scalarTransport execute: age
smoothSolver:  Solving for age, Initial residual = 0.0140894, Final residual = 0.00135093, No Iterations 12

Time = 57

smoothSolver:  Solving for Ux, Initial residual = 0.0131299, Final residual = 0.000906491, No Iterations 6
smoothSolver:  Solving for Uy, Initial residual = 0.00614953, Final residual = 0.000420495, No Iterations 6
GAMG:  Solving for p, Initial residual = 0.0111872, Final residual = 0.00070559, No Iterations 2
time step continuity errors : sum local = 0.00180897, global = 0.000223028, cumulative = 0.0109148
smoothSolver:  Solving for omega, Initial residual = 0.00148225, Final residual = 0.000128147, No Iterations 5
smoothSolver:  Solving for k, Initial residual = 0.0166557, Final residual = 0.00134292, No Iterations 6
ExecutionTime = 0.78 s  ClockTime = 0 s

scalarTransport execute: age
smoothSolver:  Solving for age, Initial residual = 0.0146096, Final residual = 0.00142632, No Iterations 12

Time = 58

smoothSolver:  Solving for Ux, Initial residual = 0.0130996, Final residual = 0.000907342, No Iterations 6
smoothSolver:  Solving for Uy, Initial residual = 0.00634334, Final residual = 0.000436091, No Iterations 6
GAMG:  Solving for p, Initial residual = 0.011192, Final residual = 0.000722185, No Iterations 2
time step continuity errors : sum local = 0.00184532, global = 0.000229507, cumulative = 0.0111444
smoothSolver:  Solving for omega, Initial residual = 0.00143053, Final residual = 0.000122945, No Iterations 5
smoothSolver:  Solving for k, Initial residual = 0.0162289, Final residual = 0.00130759, No Iterations 6
ExecutionTime = 0.8 s  ClockTime = 0 s

scalarTransport execute: age
smoothSolver:  Solving for age, Initial residual = 0.0151484, Final residual = 0.00148913, No Iterations 12

Time = 59

smoothSolver:  Solving for Ux, Initial residual = 0.0130683, Final residual = 0.000906429, No Iterations 6
smoothSolver:  Solving for Uy, Initial residual = 0.00652831, Final residual = 0.000451366, No Iterations 6
GAMG:  Solving for p, Initial residual = 0.0111715, Final residual = 0.000737573, No Iterations 2
time step continuity errors : sum local = 0.00188146, global = 0.000234435, cumulative = 0.0113788
smoothSolver:  Solving for omega, Initial residual = 0.0013874, Final residual = 0.000118056, No Iterations 5
smoothSolver:  Solving for k, Initial residual = 0.0158175, Final residual = 0.00127348, No Iterations 6
ExecutionTime = 0.81 s  ClockTime = 0 s

scalarTransport execute: age
smoothSolver:  Solving for age, Initial residual = 0.0156679, Final residual = 0.00152804, No Iterations 12

Time = 60

smoothSolver:  Solving for Ux, Initial residual = 0.0130015, Final residual = 0.000903861, No Iterations 6
smoothSolver:  Solving for Uy, Initial residual = 0.00670988, Final residual = 0.000466119, No Iterations 6
GAMG:  Solving for p, Initial residual = 0.0110382, Final residual = 0.000755332, No Iterations 2
time step continuity errors : sum local = 0.00192114, global = 0.00023714, cumulative = 0.0116159
smoothSolver:  Solving for omega, Initial residual = 0.00134175, Final residual = 0.000113467, No Iterations 5
smoothSolver:  Solving for k, Initial residual = 0.0154215, Final residual = 0.00124055, No Iterations 6
ExecutionTime = 0.82 s  ClockTime = 0 s

scalarTransport execute: age
smoothSolver:  Solving for age, Initial residual = 0.0162232, Final residual = 0.00156899, No Iterations 12

Time = 61

smoothSolver:  Solving for Ux, Initial residual = 0.0129249, Final residual = 0.000900211, No Iterations 6
smoothSolver:  Solving for Uy, Initial residual = 0.00687607, Final residual = 0.000480153, No Iterations 6
GAMG:  Solving for p, Initial residual = 0.0108399, Final residual = 0.000770285, No Iterations 2
time step continuity errors : sum local = 0.00195488, global = 0.00023832, cumulative = 0.0118543
smoothSolver:  Solving for omega, Initial residual = 0.00129697, Final residual = 0.000109121, No Iterations 5
smoothSolver:  Solving for k, Initial residual = 0.015038, Final residual = 0.00120872, No Iterations 6
ExecutionTime = 0.84 s  ClockTime = 0 s

scalarTransport execute: age
smoothSolver:  Solving for age, Initial residual = 0.0169462, Final residual = 0.00166894, No Iterations 12

Time = 62

smoothSolver:  Solving for Ux, Initial residual = 0.0128348, Final residual = 0.000895499, No Iterations 6
smoothSolver:  Solving for Uy, Initial residual = 0.0070204, Final residual = 0.000493293, No Iterations 6
GAMG:  Solving for p, Initial residual = 0.0105314, Final residual = 0.000771186, No Iterations 2
time step continuity errors : sum local = 0.00195361, global = 0.000237863, cumulative = 0.0120921
smoothSolver:  Solving for omega, Initial residual = 0.0012518, Final residual = 0.000104995, No Iterations 5
smoothSolver:  Solving for k, Initial residual = 0.0146687, Final residual = 0.001178, No Iterations 6
ExecutionTime = 0.85 s  ClockTime = 0 s

scalarTransport execute: age
smoothSolver:  Solving for age, Initial residual = 0.0176815, Final residual = 0.00171739, No Iterations 12

Time = 63

smoothSolver:  Solving for Ux, Initial residual = 0.0127393, Final residual = 0.000890064, No Iterations 6
smoothSolver:  Solving for Uy, Initial residual = 0.00714356, Final residual = 0.00050536, No Iterations 6
GAMG:  Solving for p, Initial residual = 0.0100756, Final residual = 0.000751249, No Iterations 2
time step continuity errors : sum local = 0.00189487, global = 0.000234695, cumulative = 0.0123268
smoothSolver:  Solving for omega, Initial residual = 0.0012048, Final residual = 0.000101231, No Iterations 5
smoothSolver:  Solving for k, Initial residual = 0.0143135, Final residual = 0.00114835, No Iterations 6
ExecutionTime = 0.86 s  ClockTime = 0 s

scalarTransport execute: age
smoothSolver:  Solving for age, Initial residual = 0.0185058, Final residual = 0.00167586, No Iterations 12

Time = 64

smoothSolver:  Solving for Ux, Initial residual = 0.0126189, Final residual = 0.000884898, No Iterations 6
smoothSolver:  Solving for Uy, Initial residual = 0.00723931, Final residual = 0.000516094, No Iterations 6
GAMG:  Solving for p, Initial residual = 0.00973251, Final residual = 0.000735369, No Iterations 2
time step continuity errors : sum local = 0.00184491, global = 0.000229923, cumulative = 0.0125567
smoothSolver:  Solving for omega, Initial residual = 0.0011687, Final residual = 9.77799e-05, No Iterations 5
smoothSolver:  Solving for k, Initial residual = 0.0139698, Final residual = 0.0011197, No Iterations 6
ExecutionTime = 0.88 s  ClockTime = 0 s

scalarTransport execute: age
smoothSolver:  Solving for age, Initial residual = 0.0192805, Final residual = 0.00170691, No Iterations 12

Time = 65

smoothSolver:  Solving for Ux, Initial residual = 0.0125032, Final residual = 0.00088002, No Iterations 6
smoothSolver:  Solving for Uy, Initial residual = 0.00731329, Final residual = 0.000525281, No Iterations 6
GAMG:  Solving for p, Initial residual = 0.0094966, Final residual = 0.000719529, No Iterations 2
time step continuity errors : sum local = 0.00179708, global = 0.000224013, cumulative = 0.0127807
smoothSolver:  Solving for omega, Initial residual = 0.00113879, Final residual = 9.46202e-05, No Iterations 5
smoothSolver:  Solving for k, Initial residual = 0.0136362, Final residual = 0.00109199, No Iterations 6
ExecutionTime = 0.89 s  ClockTime = 0 s

scalarTransport execute: age
smoothSolver:  Solving for age, Initial residual = 0.0193853, Final residual = 0.00191227, No Iterations 11

Time = 66

smoothSolver:  Solving for Ux, Initial residual = 0.0123944, Final residual = 0.000875151, No Iterations 6
smoothSolver:  Solving for Uy, Initial residual = 0.00736509, Final residual = 0.000533077, No Iterations 6
GAMG:  Solving for p, Initial residual = 0.00933462, Final residual = 0.000703353, No Iterations 2
time step continuity errors : sum local = 0.00174918, global = 0.000217513, cumulative = 0.0129983
smoothSolver:  Solving for omega, Initial residual = 0.00111061, Final residual = 9.15799e-05, No Iterations 5
smoothSolver:  Solving for k, Initial residual = 0.0133116, Final residual = 0.00106516, No Iterations 6
ExecutionTime = 0.9 s  ClockTime = 0 s

scalarTransport execute: age
smoothSolver:  Solving for age, Initial residual = 0.0193758, Final residual = 0.00185782, No Iterations 11

Time = 67

smoothSolver:  Solving for Ux, Initial residual = 0.0123011, Final residual = 0.000870131, No Iterations 6
smoothSolver:  Solving for Uy, Initial residual = 0.00740529, Final residual = 0.000539372, No Iterations 6
GAMG:  Solving for p, Initial residual = 0.00920541, Final residual = 0.000685742, No Iterations 2
time step continuity errors : sum local = 0.00169879, global = 0.000210394, cumulative = 0.0132087
smoothSolver:  Solving for omega, Initial residual = 0.00108561, Final residual = 8.87181e-05, No Iterations 5
smoothSolver:  Solving for k, Initial residual = 0.012996, Final residual = 0.00103916, No Iterations 6
ExecutionTime = 0.91 s  ClockTime = 0 s

scalarTransport execute: age
smoothSolver:  Solving for age, Initial residual = 0.0187068, Final residual = 0.0017442, No Iterations 11

Time = 68

smoothSolver:  Solving for Ux, Initial residual = 0.0122383, Final residual = 0.000865087, No Iterations 6
smoothSolver:  Solving for Uy, Initial residual = 0.00742708, Final residual = 0.000544239, No Iterations 6
GAMG:  Solving for p, Initial residual = 0.00902673, Final residual = 0.000664591, No Iterations 2
time step continuity errors : sum local = 0.00164137, global = 0.000202975, cumulative = 0.0134116
smoothSolver:  Solving for omega, Initial residual = 0.00105636, Final residual = 8.59165e-05, No Iterations 5
smoothSolver:  Solving for k, Initial residual = 0.0126892, Final residual = 0.00101397, No Iterations 6
ExecutionTime = 0.93 s  ClockTime = 1 s

scalarTransport execute: age
smoothSolver:  Solving for age, Initial residual = 0.0174006, Final residual = 0.00157197, No Iterations 11

Time = 69

smoothSolver:  Solving for Ux, Initial residual = 0.0121827, Final residual = 0.000860085, No Iterations 6
smoothSolver:  Solving for Uy, Initial residual = 0.00743273, Final residual = 0.000547755, No Iterations 6
GAMG:  Solving for p, Initial residual = 0.00880261, Final residual = 0.000643824, No Iterations 2
time step continuity errors : sum local = 0.00158545, global = 0.000191028, cumulative = 0.0136027
smoothSolver:  Solving for omega, Initial residual = 0.00102947, Final residual = 8.32336e-05, No Iterations 5
smoothSolver:  Solving for k, Initial residual = 0.012392, Final residual = 0.000989596, No Iterations 6
ExecutionTime = 0.94 s  ClockTime = 1 s

scalarTransport execute: age
smoothSolver:  Solving for age, Initial residual = 0.0157689, Final residual = 0.00144104, No Iterations 11

Time = 70

smoothSolver:  Solving for Ux, Initial residual = 0.0121402, Final residual = 0.000857373, No Iterations 6
smoothSolver:  Solving for Uy, Initial residual = 0.00741782, Final residual = 0.000549868, No Iterations 6
GAMG:  Solving for p, Initial residual = 0.00859498, Final residual = 0.000616357, No Iterations 2
time step continuity errors : sum local = 0.00151314, global = 0.000178938, cumulative = 0.0137816
smoothSolver:  Solving for omega, Initial residual = 0.00100111, Final residual = 8.0699e-05, No Iterations 5
smoothSolver:  Solving for k, Initial residual = 0.0121031, Final residual = 0.000965983, No Iterations 6
ExecutionTime = 0.95 s  ClockTime = 1 s

scalarTransport execute: age
smoothSolver:  Solving for age, Initial residual = 0.0148319, Final residual = 0.00140478, No Iterations 11

Time = 71

smoothSolver:  Solving for Ux, Initial residual = 0.0120913, Final residual = 0.000854303, No Iterations 6
smoothSolver:  Solving for Uy, Initial residual = 0.00739364, Final residual = 0.000551057, No Iterations 6
GAMG:  Solving for p, Initial residual = 0.00842805, Final residual = 0.000593037, No Iterations 2
time step continuity errors : sum local = 0.00144931, global = 0.000166891, cumulative = 0.0139485
smoothSolver:  Solving for omega, Initial residual = 0.00097507, Final residual = 7.83078e-05, No Iterations 5
smoothSolver:  Solving for k, Initial residual = 0.0118231, Final residual = 0.000943067, No Iterations 6
ExecutionTime = 0.97 s  ClockTime = 1 s

scalarTransport execute: age
smoothSolver:  Solving for age, Initial residual = 0.0141605, Final residual = 0.00128687, No Iterations 12

Time = 72

smoothSolver:  Solving for Ux, Initial residual = 0.012027, Final residual = 0.000849849, No Iterations 6
smoothSolver:  Solving for Uy, Initial residual = 0.0073557, Final residual = 0.000551291, No Iterations 6
GAMG:  Solving for p, Initial residual = 0.00829655, Final residual = 0.000571375, No Iterations 2
time step continuity errors : sum local = 0.00139006, global = 0.000153564, cumulative = 0.0141021
smoothSolver:  Solving for omega, Initial residual = 0.000950206, Final residual = 7.60444e-05, No Iterations 5
smoothSolver:  Solving for k, Initial residual = 0.0115512, Final residual = 0.000920763, No Iterations 6
ExecutionTime = 0.98 s  ClockTime = 1 s

scalarTransport execute: age
smoothSolver:  Solving for age, Initial residual = 0.0136729, Final residual = 0.00128581, No Iterations 12

Time = 73

smoothSolver:  Solving for Ux, Initial residual = 0.0119485, Final residual = 0.000844115, No Iterations 6
smoothSolver:  Solving for Uy, Initial residual = 0.00731398, Final residual = 0.000550709, No Iterations 6
GAMG:  Solving for p, Initial residual = 0.00824877, Final residual = 0.000552827, No Iterations 2
time step continuity errors : sum local = 0.00133885, global = 0.000140365, cumulative = 0.0142424
smoothSolver:  Solving for omega, Initial residual = 0.000928556, Final residual = 7.38912e-05, No Iterations 5
smoothSolver:  Solving for k, Initial residual = 0.0112883, Final residual = 0.000899033, No Iterations 6
ExecutionTime = 0.99 s  ClockTime = 1 s

scalarTransport execute: age
smoothSolver:  Solving for age, Initial residual = 0.013595, Final residual = 0.00124978, No Iterations 12

Time = 74

smoothSolver:  Solving for Ux, Initial residual = 0.0118639, Final residual = 0.0008376, No Iterations 6
smoothSolver:  Solving for Uy, Initial residual = 0.00726703, Final residual = 0.00054933, No Iterations 6
GAMG:  Solving for p, Initial residual = 0.00819147, Final residual = 0.000538965, No Iterations 2
time step continuity errors : sum local = 0.00129937, global = 0.000128409, cumulative = 0.0143708
smoothSolver:  Solving for omega, Initial residual = 0.000908144, Final residual = 7.18255e-05, No Iterations 5
smoothSolver:  Solving for k, Initial residual = 0.011032, Final residual = 0.000877804, No Iterations 6
ExecutionTime = 1.01 s  ClockTime = 1 s

scalarTransport execute: age
smoothSolver:  Solving for age, Initial residual = 0.0133517, Final residual = 0.00121445, No Iterations 12

Time = 75

smoothSolver:  Solving for Ux, Initial residual = 0.0117734, Final residual = 0.00083064, No Iterations 6
smoothSolver:  Solving for Uy, Initial residual = 0.00721638, Final residual = 0.000547211, No Iterations 6
GAMG:  Solving for p, Initial residual = 0.00813863, Final residual = 0.0005313, No Iterations 2
time step continuity errors : sum local = 0.00127531, global = 0.000117936, cumulative = 0.0144888
smoothSolver:  Solving for omega, Initial residual = 0.000886383, Final residual = 6.98385e-05, No Iterations 5
smoothSolver:  Solving for k, Initial residual = 0.0107818, Final residual = 0.000857055, No Iterations 6
ExecutionTime = 1.02 s  ClockTime = 1 s

scalarTransport execute: age
smoothSolver:  Solving for age, Initial residual = 0.0131457, Final residual = 0.00120983, No Iterations 12

Time = 76

smoothSolver:  Solving for Ux, Initial residual = 0.0116791, Final residual = 0.00082314, No Iterations 6
smoothSolver:  Solving for Uy, Initial residual = 0.00716181, Final residual = 0.000544254, No Iterations 6
GAMG:  Solving for p, Initial residual = 0.00809081, Final residual = 0.000527194, No Iterations 2
time step continuity errors : sum local = 0.0012598, global = 0.000109313, cumulative = 0.0145981
smoothSolver:  Solving for omega, Initial residual = 0.000867174, Final residual = 6.79479e-05, No Iterations 5
smoothSolver:  Solving for k, Initial residual = 0.0105365, Final residual = 0.000836725, No Iterations 6
ExecutionTime = 1.03 s  ClockTime = 1 s

scalarTransport execute: age
smoothSolver:  Solving for age, Initial residual = 0.0129464, Final residual = 0.00123085, No Iterations 12

Time = 77

smoothSolver:  Solving for Ux, Initial residual = 0.0115722, Final residual = 0.000815102, No Iterations 6
smoothSolver:  Solving for Uy, Initial residual = 0.00709939, Final residual = 0.000540349, No Iterations 6
GAMG:  Solving for p, Initial residual = 0.008058, Final residual = 0.000524668, No Iterations 2
time step continuity errors : sum local = 0.00124774, global = 0.000103672, cumulative = 0.0147017
smoothSolver:  Solving for omega, Initial residual = 0.000846993, Final residual = 6.60791e-05, No Iterations 5
smoothSolver:  Solving for k, Initial residual = 0.0102961, Final residual = 0.000816791, No Iterations 6
ExecutionTime = 1.04 s  ClockTime = 1 s

scalarTransport execute: age
smoothSolver:  Solving for age, Initial residual = 0.012826, Final residual = 0.00126386, No Iterations 12

Time = 78

smoothSolver:  Solving for Ux, Initial residual = 0.0114558, Final residual = 0.00080654, No Iterations 6
smoothSolver:  Solving for Uy, Initial residual = 0.00703353, Final residual = 0.000535404, No Iterations 6
GAMG:  Solving for p, Initial residual = 0.00805774, Final residual = 0.000519289, No Iterations 2
time step continuity errors : sum local = 0.00122868, global = 0.000109169, cumulative = 0.0148109
smoothSolver:  Solving for omega, Initial residual = 0.000826476, Final residual = 6.42326e-05, No Iterations 5
smoothSolver:  Solving for k, Initial residual = 0.0100597, Final residual = 0.000797193, No Iterations 6
ExecutionTime = 1.06 s  ClockTime = 1 s

scalarTransport execute: age
smoothSolver:  Solving for age, Initial residual = 0.0125967, Final residual = 0.00111681, No Iterations 13

Time = 79

smoothSolver:  Solving for Ux, Initial residual = 0.0113105, Final residual = 0.000795896, No Iterations 6
smoothSolver:  Solving for Uy, Initial residual = 0.00696949, Final residual = 0.000530062, No Iterations 6
GAMG:  Solving for p, Initial residual = 0.00805872, Final residual = 0.000522673, No Iterations 2
time step continuity errors : sum local = 0.00123106, global = 0.000105303, cumulative = 0.0149162
smoothSolver:  Solving for omega, Initial residual = 0.000810853, Final residual = 6.24664e-05, No Iterations 5
smoothSolver:  Solving for k, Initial residual = 0.00982691, Final residual = 0.000777949, No Iterations 6
ExecutionTime = 1.07 s  ClockTime = 1 s

scalarTransport execute: age
smoothSolver:  Solving for age, Initial residual = 0.0122925, Final residual = 0.00112127, No Iterations 13

Time = 80

smoothSolver:  Solving for Ux, Initial residual = 0.011191, Final residual = 0.000787202, No Iterations 6
smoothSolver:  Solving for Uy, Initial residual = 0.00687725, Final residual = 0.000521778, No Iterations 6
GAMG:  Solving for p, Initial residual = 0.00807062, Final residual = 0.000514628, No Iterations 2
time step continuity errors : sum local = 0.0012055, global = 0.000103936, cumulative = 0.0150202
smoothSolver:  Solving for omega, Initial residual = 0.000791584, Final residual = 6.07826e-05, No Iterations 5
smoothSolver:  Solving for k, Initial residual = 0.00959865, Final residual = 0.000758993, No Iterations 6
ExecutionTime = 1.08 s  ClockTime = 1 s

scalarTransport execute: age
smoothSolver:  Solving for age, Initial residual = 0.0118971, Final residual = 0.00112775, No Iterations 13

Time = 81

smoothSolver:  Solving for Ux, Initial residual = 0.0110529, Final residual = 0.000777592, No Iterations 6
smoothSolver:  Solving for Uy, Initial residual = 0.00677817, Final residual = 0.000513465, No Iterations 6
GAMG:  Solving for p, Initial residual = 0.00805111, Final residual = 0.000507751, No Iterations 2
time step continuity errors : sum local = 0.00118232, global = 0.000103506, cumulative = 0.0151237
smoothSolver:  Solving for omega, Initial residual = 0.000774642, Final residual = 5.91123e-05, No Iterations 5
smoothSolver:  Solving for k, Initial residual = 0.00937305, Final residual = 0.000740312, No Iterations 6
ExecutionTime = 1.1 s  ClockTime = 1 s

scalarTransport execute: age
smoothSolver:  Solving for age, Initial residual = 0.0114252, Final residual = 0.000997294, No Iterations 14

Time = 82

smoothSolver:  Solving for Ux, Initial residual = 0.010904, Final residual = 0.000767188, No Iterations 6
smoothSolver:  Solving for Uy, Initial residual = 0.0066661, Final residual = 0.000503975, No Iterations 6
GAMG:  Solving for p, Initial residual = 0.00801468, Final residual = 0.000500563, No Iterations 2
time step continuity errors : sum local = 0.0011583, global = 0.000103605, cumulative = 0.0152273
smoothSolver:  Solving for omega, Initial residual = 0.000757815, Final residual = 5.7456e-05, No Iterations 5
smoothSolver:  Solving for k, Initial residual = 0.00915024, Final residual = 0.000721896, No Iterations 6
ExecutionTime = 1.11 s  ClockTime = 1 s

scalarTransport execute: age
smoothSolver:  Solving for age, Initial residual = 0.0110587, Final residual = 0.00101185, No Iterations 14

Time = 83

smoothSolver:  Solving for Ux, Initial residual = 0.0107522, Final residual = 0.000756243, No Iterations 6
smoothSolver:  Solving for Uy, Initial residual = 0.00653754, Final residual = 0.000493072, No Iterations 6
GAMG:  Solving for p, Initial residual = 0.00795008, Final residual = 0.000491353, No Iterations 2
time step continuity errors : sum local = 0.00112956, global = 0.00010384, cumulative = 0.0153311
smoothSolver:  Solving for omega, Initial residual = 0.000741459, Final residual = 5.58206e-05, No Iterations 5
smoothSolver:  Solving for k, Initial residual = 0.00893014, Final residual = 0.00070373, No Iterations 6
ExecutionTime = 1.12 s  ClockTime = 1 s

scalarTransport execute: age
smoothSolver:  Solving for age, Initial residual = 0.010798, Final residual = 0.00102544, No Iterations 14

Time = 84

smoothSolver:  Solving for Ux, Initial residual = 0.0105919, Final residual = 0.000744822, No Iterations 6
smoothSolver:  Solving for Uy, Initial residual = 0.00639658, Final residual = 0.000481034, No Iterations 6
GAMG:  Solving for p, Initial residual = 0.00786096, Final residual = 0.000480556, No Iterations 2
time step continuity errors : sum local = 0.00109771, global = 0.000104283, cumulative = 0.0154354
smoothSolver:  Solving for omega, Initial residual = 0.0007228, Final residual = 5.40717e-05, No Iterations 5
smoothSolver:  Solving for k, Initial residual = 0.00871304, Final residual = 0.000685861, No Iterations 6
ExecutionTime = 1.14 s  ClockTime = 1 s

scalarTransport execute: age
smoothSolver:  Solving for age, Initial residual = 0.0105625, Final residual = 0.00104384, No Iterations 14

Time = 85

smoothSolver:  Solving for Ux, Initial residual = 0.0104217, Final residual = 0.000732637, No Iterations 6
smoothSolver:  Solving for Uy, Initial residual = 0.00624393, Final residual = 0.000467992, No Iterations 6
GAMG:  Solving for p, Initial residual = 0.00776967, Final residual = 0.000475907, No Iterations 2
time step continuity errors : sum local = 0.00108045, global = 0.000116999, cumulative = 0.0155524
smoothSolver:  Solving for omega, Initial residual = 0.000704953, Final residual = 5.2404e-05, No Iterations 5
smoothSolver:  Solving for k, Initial residual = 0.00849796, Final residual = 0.000668182, No Iterations 6
ExecutionTime = 1.15 s  ClockTime = 1 s

scalarTransport execute: age
smoothSolver:  Solving for age, Initial residual = 0.0104911, Final residual = 0.00092499, No Iterations 15

Time = 86

smoothSolver:  Solving for Ux, Initial residual = 0.0102175, Final residual = 0.000717852, No Iterations 6
smoothSolver:  Solving for Uy, Initial residual = 0.0060935, Final residual = 0.000455049, No Iterations 6
GAMG:  Solving for p, Initial residual = 0.00767325, Final residual = 0.000463406, No Iterations 2
time step continuity errors : sum local = 0.00104669, global = 0.000113697, cumulative = 0.0156661
smoothSolver:  Solving for omega, Initial residual = 0.000692217, Final residual = 5.07651e-05, No Iterations 5
smoothSolver:  Solving for k, Initial residual = 0.00828531, Final residual = 0.000650741, No Iterations 6
ExecutionTime = 1.16 s  ClockTime = 1 s

scalarTransport execute: age
smoothSolver:  Solving for age, Initial residual = 0.0104524, Final residual = 0.000926423, No Iterations 15

Time = 87

smoothSolver:  Solving for Ux, Initial residual = 0.0100398, Final residual = 0.000705282, No Iterations 6
smoothSolver:  Solving for Uy, Initial residual = 0.0059049, Final residual = 0.000438975, No Iterations 6
GAMG:  Solving for p, Initial residual = 0.00751069, Final residual = 0.000444326, No Iterations 2
time step continuity errors : sum local = 0.000997822, global = 0.000112904, cumulative = 0.015779
smoothSolver:  Solving for omega, Initial residual = 0.000675597, Final residual = 4.91875e-05, No Iterations 5
smoothSolver:  Solving for k, Initial residual = 0.00807478, Final residual = 0.000633551, No Iterations 6
ExecutionTime = 1.18 s  ClockTime = 1 s

scalarTransport execute: age
smoothSolver:  Solving for age, Initial residual = 0.0104003, Final residual = 0.000921535, No Iterations 15

Time = 88

smoothSolver:  Solving for Ux, Initial residual = 0.00984464, Final residual = 0.000691288, No Iterations 6
smoothSolver:  Solving for Uy, Initial residual = 0.00573127, Final residual = 0.00042423, No Iterations 6
GAMG:  Solving for p, Initial residual = 0.00738645, Final residual = 0.000436098, No Iterations 2
time step continuity errors : sum local = 0.000974332, global = 0.00011244, cumulative = 0.0158914
smoothSolver:  Solving for omega, Initial residual = 0.000653805, Final residual = 4.74698e-05, No Iterations 5
smoothSolver:  Solving for k, Initial residual = 0.00786559, Final residual = 0.00061665, No Iterations 6
ExecutionTime = 1.19 s  ClockTime = 1 s

scalarTransport execute: age
smoothSolver:  Solving for age, Initial residual = 0.0103095, Final residual = 0.000917052, No Iterations 15

Time = 89

smoothSolver:  Solving for Ux, Initial residual = 0.0096285, Final residual = 0.000675856, No Iterations 6
smoothSolver:  Solving for Uy, Initial residual = 0.00555342, Final residual = 0.000409176, No Iterations 6
GAMG:  Solving for p, Initial residual = 0.00727295, Final residual = 0.000434005, No Iterations 2
time step continuity errors : sum local = 0.000965124, global = 0.000111421, cumulative = 0.0160028
smoothSolver:  Solving for omega, Initial residual = 0.000636472, Final residual = 4.5923e-05, No Iterations 5
smoothSolver:  Solving for k, Initial residual = 0.0076591, Final residual = 0.000599946, No Iterations 6
ExecutionTime = 1.2 s  ClockTime = 1 s

scalarTransport execute: age
smoothSolver:  Solving for age, Initial residual = 0.0101195, Final residual = 0.000898851, No Iterations 15

Time = 90

smoothSolver:  Solving for Ux, Initial residual = 0.0094014, Final residual = 0.000659603, No Iterations 6
smoothSolver:  Solving for Uy, Initial residual = 0.00536869, Final residual = 0.000393419, No Iterations 6
GAMG:  Solving for p, Initial residual = 0.00714824, Final residual = 0.000433896, No Iterations 2
time step continuity errors : sum local = 0.000960402, global = 0.00011064, cumulative = 0.0161135
smoothSolver:  Solving for omega, Initial residual = 0.000621915, Final residual = 4.45409e-05, No Iterations 5
smoothSolver:  Solving for k, Initial residual = 0.00745383, Final residual = 0.000583429, No Iterations 6
ExecutionTime = 1.22 s  ClockTime = 1 s

scalarTransport execute: age
smoothSolver:  Solving for age, Initial residual = 0.00978, Final residual = 0.000856877, No Iterations 15

Time = 91

smoothSolver:  Solving for Ux, Initial residual = 0.00916306, Final residual = 0.000642812, No Iterations 6
smoothSolver:  Solving for Uy, Initial residual = 0.00518237, Final residual = 0.000377407, No Iterations 6
GAMG:  Solving for p, Initial residual = 0.00702092, Final residual = 0.000432261, No Iterations 2
time step continuity errors : sum local = 0.000952359, global = 0.000109743, cumulative = 0.0162232
smoothSolver:  Solving for omega, Initial residual = 0.000606162, Final residual = 4.31781e-05, No Iterations 5
smoothSolver:  Solving for k, Initial residual = 0.00725056, Final residual = 0.000567116, No Iterations 6
ExecutionTime = 1.22 s  ClockTime = 1 s

scalarTransport execute: age
smoothSolver:  Solving for age, Initial residual = 0.00934105, Final residual = 0.000900066, No Iterations 14

Time = 92

smoothSolver:  Solving for Ux, Initial residual = 0.00891879, Final residual = 0.000625652, No Iterations 6
smoothSolver:  Solving for Uy, Initial residual = 0.00499806, Final residual = 0.000361412, No Iterations 6
GAMG:  Solving for p, Initial residual = 0.0068765, Final residual = 0.000428121, No Iterations 2
time step continuity errors : sum local = 0.000939456, global = 0.000108785, cumulative = 0.016332
smoothSolver:  Solving for omega, Initial residual = 0.000590265, Final residual = 4.18809e-05, No Iterations 5
smoothSolver:  Solving for k, Initial residual = 0.00704882, Final residual = 0.00055098, No Iterations 6
ExecutionTime = 1.23 s  ClockTime = 1 s

scalarTransport execute: age
smoothSolver:  Solving for age, Initial residual = 0.00896024, Final residual = 0.000821709, No Iterations 14

Time = 93

smoothSolver:  Solving for Ux, Initial residual = 0.00867165, Final residual = 0.000608051, No Iterations 6
smoothSolver:  Solving for Uy, Initial residual = 0.00481415, Final residual = 0.000345529, No Iterations 6
GAMG:  Solving for p, Initial residual = 0.00672163, Final residual = 0.000422325, No Iterations 2
time step continuity errors : sum local = 0.00092359, global = 0.000108084, cumulative = 0.0164401
smoothSolver:  Solving for omega, Initial residual = 0.000574805, Final residual = 4.06476e-05, No Iterations 5
smoothSolver:  Solving for k, Initial residual = 0.00684948, Final residual = 0.000535049, No Iterations 6
ExecutionTime = 1.26 s  ClockTime = 1 s

scalarTransport execute: age
smoothSolver:  Solving for age, Initial residual = 0.00858036, Final residual = 0.000752583, No Iterations 14

Time = 94

smoothSolver:  Solving for Ux, Initial residual = 0.00841202, Final residual = 0.000589879, No Iterations 6
smoothSolver:  Solving for Uy, Initial residual = 0.00463505, Final residual = 0.000329798, No Iterations 6
GAMG:  Solving for p, Initial residual = 0.00655667, Final residual = 0.000414317, No Iterations 2
time step continuity errors : sum local = 0.000903779, global = 0.000107548, cumulative = 0.0165476
smoothSolver:  Solving for omega, Initial residual = 0.000560034, Final residual = 3.94646e-05, No Iterations 5
smoothSolver:  Solving for k, Initial residual = 0.00665222, Final residual = 0.000519299, No Iterations 6
ExecutionTime = 1.26 s  ClockTime = 1 s

scalarTransport execute: age
smoothSolver:  Solving for age, Initial residual = 0.00814579, Final residual = 0.00078047, No Iterations 13

Time = 95

smoothSolver:  Solving for Ux, Initial residual = 0.00814541, Final residual = 0.000571209, No Iterations 6
smoothSolver:  Solving for Uy, Initial residual = 0.00445965, Final residual = 0.000314147, No Iterations 6
GAMG:  Solving for p, Initial residual = 0.00639254, Final residual = 0.00040454, No Iterations 2
time step continuity errors : sum local = 0.00088051, global = 0.000107317, cumulative = 0.016655
smoothSolver:  Solving for omega, Initial residual = 0.000544623, Final residual = 3.83249e-05, No Iterations 5
smoothSolver:  Solving for k, Initial residual = 0.00645718, Final residual = 0.000503695, No Iterations 6
ExecutionTime = 1.27 s  ClockTime = 1 s

scalarTransport execute: age
smoothSolver:  Solving for age, Initial residual = 0.00774993, Final residual = 0.000710231, No Iterations 13

Time = 96

smoothSolver:  Solving for Ux, Initial residual = 0.00787772, Final residual = 0.00055228, No Iterations 6
[...]

Time = 478

smoothSolver:  Solving for Ux, Initial residual = 9.50853e-07, Final residual = 8.59882e-08, No Iterations 5
smoothSolver:  Solving for Uy, Initial residual = 6.74239e-07, Final residual = 5.9594e-08, No Iterations 5
GAMG:  Solving for p, Initial residual = 2.66243e-06, Final residual = 1.36048e-07, No Iterations 2
time step continuity errors : sum local = 2.94932e-07, global = 6.42757e-09, cumulative = 0.0214091
smoothSolver:  Solving for omega, Initial residual = 1.06696e-07, Final residual = 1.06085e-08, No Iterations 4
smoothSolver:  Solving for k, Initial residual = 3.03818e-07, Final residual = 2.99938e-08, No Iterations 5
ExecutionTime = 6.14 s  ClockTime = 6 s

scalarTransport execute: age
smoothSolver:  Solving for age, Initial residual = 0.000345755, Final residual = 3.18155e-05, No Iterations 15

Time = 479

smoothSolver:  Solving for Ux, Initial residual = 9.10286e-07, Final residual = 8.22913e-08, No Iterations 5
smoothSolver:  Solving for Uy, Initial residual = 6.48918e-07, Final residual = 5.74291e-08, No Iterations 5
GAMG:  Solving for p, Initial residual = 2.56491e-06, Final residual = 1.31942e-07, No Iterations 2
time step continuity errors : sum local = 2.8603e-07, global = 6.93018e-09, cumulative = 0.0214091
smoothSolver:  Solving for omega, Initial residual = 1.03113e-07, Final residual = 1.0223e-08, No Iterations 4
smoothSolver:  Solving for k, Initial residual = 2.97007e-07, Final residual = 2.94623e-08, No Iterations 5
ExecutionTime = 6.15 s  ClockTime = 6 s

scalarTransport execute: age
smoothSolver:  Solving for age, Initial residual = 0.000344897, Final residual = 3.17378e-05, No Iterations 15

Time = 480

smoothSolver:  Solving for Ux, Initial residual = 8.71469e-07, Final residual = 7.87287e-08, No Iterations 5
smoothSolver:  Solving for Uy, Initial residual = 6.22706e-07, Final residual = 5.50877e-08, No Iterations 5
GAMG:  Solving for p, Initial residual = 2.46634e-06, Final residual = 1.27148e-07, No Iterations 2
time step continuity errors : sum local = 2.75639e-07, global = 6.61461e-09, cumulative = 0.0214091
smoothSolver:  Solving for omega, Initial residual = 9.94676e-08, Final residual = 9.85298e-09, No Iterations 4
smoothSolver:  Solving for k, Initial residual = 2.90384e-07, Final residual = 2.89529e-08, No Iterations 5
ExecutionTime = 6.16 s  ClockTime = 6 s

scalarTransport execute: age
smoothSolver:  Solving for age, Initial residual = 0.000344042, Final residual = 3.16603e-05, No Iterations 15

Time = 481

smoothSolver:  Solving for Ux, Initial residual = 8.34005e-07, Final residual = 7.52683e-08, No Iterations 5
smoothSolver:  Solving for Uy, Initial residual = 5.96898e-07, Final residual = 5.2767e-08, No Iterations 5
GAMG:  Solving for p, Initial residual = 2.36889e-06, Final residual = 1.20669e-07, No Iterations 2
time step continuity errors : sum local = 2.61593e-07, global = 4.78249e-09, cumulative = 0.0214091
smoothSolver:  Solving for omega, Initial residual = 9.59849e-08, Final residual = 9.49812e-09, No Iterations 4
smoothSolver:  Solving for k, Initial residual = 2.84082e-07, Final residual = 1.82604e-08, No Iterations 6
ExecutionTime = 6.17 s  ClockTime = 6 s

scalarTransport execute: age
smoothSolver:  Solving for age, Initial residual = 0.000343189, Final residual = 3.15829e-05, No Iterations 15

Time = 482

smoothSolver:  Solving for Ux, Initial residual = 7.95354e-07, Final residual = 7.16513e-08, No Iterations 5
smoothSolver:  Solving for Uy, Initial residual = 5.71936e-07, Final residual = 5.05281e-08, No Iterations 5
GAMG:  Solving for p, Initial residual = 2.2755e-06, Final residual = 1.16649e-07, No Iterations 2
time step continuity errors : sum local = 2.52877e-07, global = 5.34756e-09, cumulative = 0.0214091
smoothSolver:  Solving for omega, Initial residual = 9.18524e-08, Final residual = 9.16227e-09, No Iterations 4
smoothSolver:  Solving for k, Initial residual = 2.77458e-07, Final residual = 1.79547e-08, No Iterations 6
ExecutionTime = 6.19 s  ClockTime = 6 s

scalarTransport execute: age
smoothSolver:  Solving for age, Initial residual = 0.000342342, Final residual = 3.15059e-05, No Iterations 15

Time = 483

smoothSolver:  Solving for Ux, Initial residual = 7.5882e-07, Final residual = 6.8283e-08, No Iterations 5
smoothSolver:  Solving for Uy, Initial residual = 5.49744e-07, Final residual = 4.86278e-08, No Iterations 5
GAMG:  Solving for p, Initial residual = 2.1898e-06, Final residual = 1.12999e-07, No Iterations 2
time step continuity errors : sum local = 2.44966e-07, global = 5.59736e-09, cumulative = 0.0214091
smoothSolver:  Solving for omega, Initial residual = 8.87463e-08, Final residual = 8.82812e-09, No Iterations 4
smoothSolver:  Solving for k, Initial residual = 2.71298e-07, Final residual = 1.76679e-08, No Iterations 6
ExecutionTime = 6.2 s  ClockTime = 6 s

scalarTransport execute: age
smoothSolver:  Solving for age, Initial residual = 0.000341499, Final residual = 3.14292e-05, No Iterations 15

Time = 484

smoothSolver:  Solving for Ux, Initial residual = 7.23923e-07, Final residual = 6.50426e-08, No Iterations 5
smoothSolver:  Solving for Uy, Initial residual = 5.2666e-07, Final residual = 4.65602e-08, No Iterations 5
GAMG:  Solving for p, Initial residual = 2.10245e-06, Final residual = 1.08805e-07, No Iterations 2
time step continuity errors : sum local = 2.35873e-07, global = 5.8639e-09, cumulative = 0.0214091
smoothSolver:  Solving for omega, Initial residual = 8.5349e-08, Final residual = 8.50319e-09, No Iterations 4
smoothSolver:  Solving for k, Initial residual = 2.65398e-07, Final residual = 1.73949e-08, No Iterations 6
ExecutionTime = 6.21 s  ClockTime = 6 s

scalarTransport execute: age
smoothSolver:  Solving for age, Initial residual = 0.00034066, Final residual = 3.13527e-05, No Iterations 15

Time = 485

smoothSolver:  Solving for Ux, Initial residual = 6.90107e-07, Final residual = 6.18967e-08, No Iterations 5
smoothSolver:  Solving for Uy, Initial residual = 5.04145e-07, Final residual = 4.45273e-08, No Iterations 5
GAMG:  Solving for p, Initial residual = 2.01507e-06, Final residual = 1.04236e-07, No Iterations 2
time step continuity errors : sum local = 2.2597e-07, global = 5.46259e-09, cumulative = 0.0214091
smoothSolver:  Solving for omega, Initial residual = 8.22571e-08, Final residual = 8.18609e-09, No Iterations 4
smoothSolver:  Solving for k, Initial residual = 2.59883e-07, Final residual = 1.71341e-08, No Iterations 6
ExecutionTime = 6.22 s  ClockTime = 6 s

scalarTransport execute: age
smoothSolver:  Solving for age, Initial residual = 0.000339825, Final residual = 3.12765e-05, No Iterations 15

Time = 486

smoothSolver:  Solving for Ux, Initial residual = 6.5716e-07, Final residual = 5.8834e-08, No Iterations 5
smoothSolver:  Solving for Uy, Initial residual = 4.82397e-07, Final residual = 4.25733e-08, No Iterations 5
GAMG:  Solving for p, Initial residual = 1.9315e-06, Final residual = 9.87083e-08, No Iterations 2
time step continuity errors : sum local = 2.13986e-07, global = 3.79061e-09, cumulative = 0.0214091
smoothSolver:  Solving for omega, Initial residual = 7.92752e-08, Final residual = 7.87989e-09, No Iterations 4
smoothSolver:  Solving for k, Initial residual = 2.54771e-07, Final residual = 1.6888e-08, No Iterations 6
ExecutionTime = 6.24 s  ClockTime = 6 s

scalarTransport execute: age
smoothSolver:  Solving for age, Initial residual = 0.000338995, Final residual = 3.12005e-05, No Iterations 15

Time = 487

smoothSolver:  Solving for Ux, Initial residual = 6.24352e-07, Final residual = 5.57461e-08, No Iterations 5
smoothSolver:  Solving for Uy, Initial residual = 4.60983e-07, Final residual = 4.06389e-08, No Iterations 5
GAMG:  Solving for p, Initial residual = 1.85136e-06, Final residual = 9.53737e-08, No Iterations 2
time step continuity errors : sum local = 2.06757e-07, global = 4.05378e-09, cumulative = 0.0214092
smoothSolver:  Solving for omega, Initial residual = 7.54855e-08, Final residual = 7.5765e-09, No Iterations 4
smoothSolver:  Solving for k, Initial residual = 2.49813e-07, Final residual = 1.665e-08, No Iterations 6
ExecutionTime = 6.25 s  ClockTime = 6 s

scalarTransport execute: age
smoothSolver:  Solving for age, Initial residual = 0.000338169, Final residual = 3.1125e-05, No Iterations 15

Time = 488

smoothSolver:  Solving for Ux, Initial residual = 5.93117e-07, Final residual = 5.28638e-08, No Iterations 5
smoothSolver:  Solving for Uy, Initial residual = 4.4199e-07, Final residual = 3.90101e-08, No Iterations 5
GAMG:  Solving for p, Initial residual = 1.77808e-06, Final residual = 9.22744e-08, No Iterations 2
time step continuity errors : sum local = 2.00038e-07, global = 3.97298e-09, cumulative = 0.0214092
smoothSolver:  Solving for omega, Initial residual = 7.27412e-08, Final residual = 7.27869e-09, No Iterations 4
smoothSolver:  Solving for k, Initial residual = 2.45239e-07, Final residual = 1.64214e-08, No Iterations 6
ExecutionTime = 6.26 s  ClockTime = 6 s

scalarTransport execute: age
smoothSolver:  Solving for age, Initial residual = 0.000337347, Final residual = 3.10497e-05, No Iterations 15

Time = 489

smoothSolver:  Solving for Ux, Initial residual = 5.63346e-07, Final residual = 5.00986e-08, No Iterations 5
smoothSolver:  Solving for Uy, Initial residual = 4.22356e-07, Final residual = 3.72458e-08, No Iterations 5
GAMG:  Solving for p, Initial residual = 1.70357e-06, Final residual = 8.86695e-08, No Iterations 2
time step continuity errors : sum local = 1.92223e-07, global = 3.88467e-09, cumulative = 0.0214092
smoothSolver:  Solving for omega, Initial residual = 6.97405e-08, Final residual = 6.99134e-09, No Iterations 4
smoothSolver:  Solving for k, Initial residual = 2.4084e-07, Final residual = 1.62001e-08, No Iterations 6
ExecutionTime = 6.27 s  ClockTime = 6 s

scalarTransport execute: age
smoothSolver:  Solving for age, Initial residual = 0.000336529, Final residual = 3.09746e-05, No Iterations 15

Time = 490

smoothSolver:  Solving for Ux, Initial residual = 5.34493e-07, Final residual = 4.74197e-08, No Iterations 5
smoothSolver:  Solving for Uy, Initial residual = 4.03123e-07, Final residual = 3.55098e-08, No Iterations 5
GAMG:  Solving for p, Initial residual = 1.62844e-06, Final residual = 8.47927e-08, No Iterations 2
time step continuity errors : sum local = 1.83819e-07, global = 3.81006e-09, cumulative = 0.0214092
smoothSolver:  Solving for omega, Initial residual = 6.6893e-08, Final residual = 6.71114e-09, No Iterations 4
smoothSolver:  Solving for k, Initial residual = 2.36658e-07, Final residual = 1.59855e-08, No Iterations 6
ExecutionTime = 6.29 s  ClockTime = 6 s

scalarTransport execute: age
smoothSolver:  Solving for age, Initial residual = 0.000335717, Final residual = 3.08999e-05, No Iterations 15

Time = 491

smoothSolver:  Solving for Ux, Initial residual = 5.06355e-07, Final residual = 4.48181e-08, No Iterations 5
smoothSolver:  Solving for Uy, Initial residual = 3.84736e-07, Final residual = 3.38538e-08, No Iterations 5
GAMG:  Solving for p, Initial residual = 1.55593e-06, Final residual = 8.09867e-08, No Iterations 2
time step continuity errors : sum local = 1.75568e-07, global = 3.69868e-09, cumulative = 0.0214092
smoothSolver:  Solving for omega, Initial residual = 6.41353e-08, Final residual = 6.43831e-09, No Iterations 4
smoothSolver:  Solving for k, Initial residual = 2.32648e-07, Final residual = 1.5776e-08, No Iterations 6
ExecutionTime = 6.3 s  ClockTime = 6 s

scalarTransport execute: age
smoothSolver:  Solving for age, Initial residual = 0.000334909, Final residual = 3.08257e-05, No Iterations 15

Time = 492

smoothSolver:  Solving for Ux, Initial residual = 4.79163e-07, Final residual = 4.22976e-08, No Iterations 5
smoothSolver:  Solving for Uy, Initial residual = 3.67023e-07, Final residual = 3.22641e-08, No Iterations 5
GAMG:  Solving for p, Initial residual = 1.48669e-06, Final residual = 7.73852e-08, No Iterations 2
time step continuity errors : sum local = 1.6776e-07, global = 3.58712e-09, cumulative = 0.0214092
smoothSolver:  Solving for omega, Initial residual = 6.14062e-08, Final residual = 6.17314e-09, No Iterations 4
smoothSolver:  Solving for k, Initial residual = 2.28811e-07, Final residual = 1.55705e-08, No Iterations 6
ExecutionTime = 6.31 s  ClockTime = 6 s

scalarTransport execute: age
smoothSolver:  Solving for age, Initial residual = 0.000334106, Final residual = 3.0752e-05, No Iterations 15

Time = 493

smoothSolver:  Solving for Ux, Initial residual = 4.52815e-07, Final residual = 3.98612e-08, No Iterations 5
smoothSolver:  Solving for Uy, Initial residual = 3.49728e-07, Final residual = 3.07193e-08, No Iterations 5
GAMG:  Solving for p, Initial residual = 1.42037e-06, Final residual = 7.39763e-08, No Iterations 2
time step continuity errors : sum local = 1.6037e-07, global = 3.45193e-09, cumulative = 0.0214092
smoothSolver:  Solving for omega, Initial residual = 5.87757e-08, Final residual = 9.95011e-09, No Iterations 3
smoothSolver:  Solving for k, Initial residual = 2.25263e-07, Final residual = 1.53753e-08, No Iterations 6
ExecutionTime = 6.32 s  ClockTime = 6 s

scalarTransport execute: age
smoothSolver:  Solving for age, Initial residual = 0.000333309, Final residual = 3.06786e-05, No Iterations 15

Time = 494

smoothSolver:  Solving for Ux, Initial residual = 4.26874e-07, Final residual = 3.7456e-08, No Iterations 5
smoothSolver:  Solving for Uy, Initial residual = 3.33017e-07, Final residual = 2.92301e-08, No Iterations 5
GAMG:  Solving for p, Initial residual = 1.35696e-06, Final residual = 7.07121e-08, No Iterations 2
time step continuity errors : sum local = 1.53294e-07, global = 3.29133e-09, cumulative = 0.0214092
smoothSolver:  Solving for omega, Initial residual = 5.7309e-08, Final residual = 9.74218e-09, No Iterations 3
smoothSolver:  Solving for k, Initial residual = 2.21848e-07, Final residual = 1.51859e-08, No Iterations 6
ExecutionTime = 6.34 s  ClockTime = 6 s

scalarTransport execute: age
smoothSolver:  Solving for age, Initial residual = 0.000332516, Final residual = 3.06057e-05, No Iterations 15

Time = 495

smoothSolver:  Solving for Ux, Initial residual = 4.01863e-07, Final residual = 3.51444e-08, No Iterations 5
smoothSolver:  Solving for Uy, Initial residual = 3.16594e-07, Final residual = 2.77629e-08, No Iterations 5
GAMG:  Solving for p, Initial residual = 1.29532e-06, Final residual = 6.75287e-08, No Iterations 2
time step continuity errors : sum local = 1.46393e-07, global = 3.08857e-09, cumulative = 0.0214092
smoothSolver:  Solving for omega, Initial residual = 5.56082e-08, Final residual = 9.488e-09, No Iterations 3
smoothSolver:  Solving for k, Initial residual = 2.18475e-07, Final residual = 1.49966e-08, No Iterations 6
ExecutionTime = 6.35 s  ClockTime = 6 s

scalarTransport execute: age
smoothSolver:  Solving for age, Initial residual = 0.000331727, Final residual = 3.05331e-05, No Iterations 15

Time = 496

smoothSolver:  Solving for Ux, Initial residual = 3.77806e-07, Final residual = 3.29226e-08, No Iterations 5
smoothSolver:  Solving for Uy, Initial residual = 3.0061e-07, Final residual = 2.63312e-08, No Iterations 5
GAMG:  Solving for p, Initial residual = 1.23516e-06, Final residual = 6.44371e-08, No Iterations 2
time step continuity errors : sum local = 1.39691e-07, global = 2.83788e-09, cumulative = 0.0214092
smoothSolver:  Solving for omega, Initial residual = 5.37579e-08, Final residual = 9.20609e-09, No Iterations 3
smoothSolver:  Solving for k, Initial residual = 2.15166e-07, Final residual = 1.48082e-08, No Iterations 6
ExecutionTime = 6.36 s  ClockTime = 6 s

scalarTransport execute: age
smoothSolver:  Solving for age, Initial residual = 0.000330943, Final residual = 3.04609e-05, No Iterations 15

Time = 497

smoothSolver:  Solving for Ux, Initial residual = 3.54725e-07, Final residual = 3.07916e-08, No Iterations 5
smoothSolver:  Solving for Uy, Initial residual = 2.85125e-07, Final residual = 2.49445e-08, No Iterations 5
GAMG:  Solving for p, Initial residual = 1.17746e-06, Final residual = 6.1449e-08, No Iterations 2
time step continuity errors : sum local = 1.33213e-07, global = 2.53351e-09, cumulative = 0.0214092
smoothSolver:  Solving for omega, Initial residual = 5.18552e-08, Final residual = 8.906e-09, No Iterations 3
smoothSolver:  Solving for k, Initial residual = 2.11954e-07, Final residual = 1.46209e-08, No Iterations 6
ExecutionTime = 6.37 s  ClockTime = 6 s

scalarTransport execute: age
smoothSolver:  Solving for age, Initial residual = 0.000330164, Final residual = 3.03892e-05, No Iterations 15

Time = 498

smoothSolver:  Solving for Ux, Initial residual = 3.32642e-07, Final residual = 2.87588e-08, No Iterations 5
smoothSolver:  Solving for Uy, Initial residual = 2.70148e-07, Final residual = 2.36031e-08, No Iterations 5
GAMG:  Solving for p, Initial residual = 1.12211e-06, Final residual = 5.85806e-08, No Iterations 2
time step continuity errors : sum local = 1.26995e-07, global = 2.17588e-09, cumulative = 0.0214092
smoothSolver:  Solving for omega, Initial residual = 4.99062e-08, Final residual = 8.59425e-09, No Iterations 3
smoothSolver:  Solving for k, Initial residual = 2.08854e-07, Final residual = 1.4435e-08, No Iterations 6
ExecutionTime = 6.39 s  ClockTime = 6 s

scalarTransport execute: age
smoothSolver:  Solving for age, Initial residual = 0.000329387, Final residual = 3.03178e-05, No Iterations 15

Time = 499

smoothSolver:  Solving for Ux, Initial residual = 3.11684e-07, Final residual = 2.68488e-08, No Iterations 5
smoothSolver:  Solving for Uy, Initial residual = 2.55645e-07, Final residual = 2.23091e-08, No Iterations 5
GAMG:  Solving for p, Initial residual = 1.06921e-06, Final residual = 5.58338e-08, No Iterations 2
time step continuity errors : sum local = 1.2104e-07, global = 1.76601e-09, cumulative = 0.0214092
smoothSolver:  Solving for omega, Initial residual = 4.79489e-08, Final residual = 8.27593e-09, No Iterations 3
smoothSolver:  Solving for k, Initial residual = 2.0591e-07, Final residual = 1.42507e-08, No Iterations 6
ExecutionTime = 6.4 s  ClockTime = 6 s

scalarTransport execute: age
smoothSolver:  Solving for age, Initial residual = 0.000328614, Final residual = 3.02469e-05, No Iterations 15

Time = 500

smoothSolver:  Solving for Ux, Initial residual = 2.91953e-07, Final residual = 2.50558e-08, No Iterations 5
smoothSolver:  Solving for Uy, Initial residual = 2.41627e-07, Final residual = 2.10612e-08, No Iterations 5
GAMG:  Solving for p, Initial residual = 1.0183e-06, Final residual = 5.3201e-08, No Iterations 2
time step continuity errors : sum local = 1.15333e-07, global = 1.30757e-09, cumulative = 0.0214092
smoothSolver:  Solving for omega, Initial residual = 4.60076e-08, Final residual = 7.95462e-09, No Iterations 3
smoothSolver:  Solving for k, Initial residual = 2.03087e-07, Final residual = 1.40677e-08, No Iterations 6
ExecutionTime = 6.41 s  ClockTime = 6 s

scalarTransport execute: age
smoothSolver:  Solving for age, Initial residual = 0.000327843, Final residual = 3.01763e-05, No Iterations 15

Time = 501

smoothSolver:  Solving for Ux, Initial residual = 2.73346e-07, Final residual = 2.33725e-08, No Iterations 5
smoothSolver:  Solving for Uy, Initial residual = 2.28116e-07, Final residual = 1.98601e-08, No Iterations 5
GAMG:  Solving for p, Initial residual = 9.69262e-07, Final residual = 5.06793e-08, No Iterations 2
time step continuity errors : sum local = 1.09866e-07, global = 8.04573e-10, cumulative = 0.0214092
smoothSolver:  Solving for omega, Initial residual = 4.40886e-08, Final residual = 7.63301e-09, No Iterations 3
smoothSolver:  Solving for k, Initial residual = 2.00372e-07, Final residual = 1.38855e-08, No Iterations 6
ExecutionTime = 6.42 s  ClockTime = 6 s


SIMPLE solution converged in 501 iterations

scalarTransport execute: age
smoothSolver:  Solving for age, Initial residual = 0.000327075, Final residual = 3.01061e-05, No Iterations 15

End

