/*---------------------------------------------------------------------------*\
| =========                 |                                                 |
| \\      /  F ield         | OpenFOAM: The Open Source CFD Toolbox           |
|  \\    /   O peration     | Version:  v2012                                 |
|   \\  /    A nd           | Website:  www.openfoam.com                      |
|    \\/     M anipulation  |                                                 |
\*---------------------------------------------------------------------------*/
Build  : _7bdb509494-20201222 OPENFOAM=2012
Arch   : "LSB;label=32;scalar=64"
Exec   : simpleFoam
Date   : Feb 23 2023
Time   : 14:02:54
Host   : johnsDesktop
PID    : 4620
I/O    : uncollated
Case   : /home/john/of_runs/cases/dbl_0_17_1-00900_9
nProcs : 1
trapFpe: Floating point exception trapping enabled (FOAM_SIGFPE).
fileModificationChecking : Monitoring run-time modified files using timeStampMaster (fileModificationSkew 5, maxFileModificationPolls 20)
allowSystemOperations : Allowing user-supplied system call operations

// * * * * * * * * * * * * * * * * * * * * * * * * * * * * * * * * * * * * * //
Create time

Create mesh for time = 0


SIMPLE: convergence criteria
    field p	 tolerance 1e-06
    field U	 tolerance 1e-06
    field "(k|epsilon|omega|f|v2|age)"	 tolerance 1e-05

Reading field p

Reading field U

Reading/calculating face flux field phi

Selecting incompressible transport model Newtonian
Selecting turbulence model type RAS
Selecting RAS turbulence model kOmegaSST
Selecting patchDistMethod meshWave
RAS
{
    RASModel        kOmegaSST;
    turbulence      on;
    printCoeffs     on;
    alphaK1         0.85;
    alphaK2         1;
    alphaOmega1     0.5;
    alphaOmega2     0.856;
    gamma1          0.555556;
    gamma2          0.44;
    beta1           0.075;
    beta2           0.0828;
    betaStar        0.09;
    a1              0.31;
    b1              1;
    c1              10;
    F3              false;
    decayControl    false;
    kInf            0;
    omegaInf        0;
}

No MRF models present

No finite volume options present

Starting time loop

Selecting finite volume options type scalarSemiImplicitSource
    Source: unitySource
    - selecting all cells
    - selected 6598 cell(s) with volume 0.03183
Time = 1

smoothSolver:  Solving for Ux, Initial residual = 0, Final residual = 0, No Iterations 0
smoothSolver:  Solving for Uy, Initial residual = 1, Final residual = 0.0660331, No Iterations 2
GAMG:  Solving for p, Initial residual = 1, Final residual = 0.0899494, No Iterations 6
time step continuity errors : sum local = 0.00565187, global = -0.00088832, cumulative = -0.00088832
smoothSolver:  Solving for omega, Initial residual = 0.27316, Final residual = 0.0135211, No Iterations 3
smoothSolver:  Solving for k, Initial residual = 1, Final residual = 0.0838269, No Iterations 3
ExecutionTime = 0.07 s  ClockTime = 0 s

scalarTransport execute: age
smoothSolver:  Solving for age, Initial residual = 1, Final residual = 0.0908098, No Iterations 5

Time = 2

smoothSolver:  Solving for Ux, Initial residual = 0.595277, Final residual = 0.0498859, No Iterations 6
smoothSolver:  Solving for Uy, Initial residual = 0.276404, Final residual = 0.0263314, No Iterations 5
GAMG:  Solving for p, Initial residual = 0.0511065, Final residual = 0.00197204, No Iterations 4
time step continuity errors : sum local = 0.0213201, global = 0.00182898, cumulative = 0.000940663
smoothSolver:  Solving for omega, Initial residual = 0.260431, Final residual = 0.0258636, No Iterations 3
smoothSolver:  Solving for k, Initial residual = 0.622169, Final residual = 0.0576548, No Iterations 4
ExecutionTime = 0.08 s  ClockTime = 0 s

scalarTransport execute: age
smoothSolver:  Solving for age, Initial residual = 0.588269, Final residual = 0.0522539, No Iterations 7

Time = 3

smoothSolver:  Solving for Ux, Initial residual = 0.223896, Final residual = 0.0217564, No Iterations 5
smoothSolver:  Solving for Uy, Initial residual = 0.0995339, Final residual = 0.00814372, No Iterations 5
GAMG:  Solving for p, Initial residual = 0.0569849, Final residual = 0.00466336, No Iterations 3
time step continuity errors : sum local = 0.021246, global = 0.00198482, cumulative = 0.00292549
smoothSolver:  Solving for omega, Initial residual = 0.257115, Final residual = 0.0244722, No Iterations 4
smoothSolver:  Solving for k, Initial residual = 0.52274, Final residual = 0.0385681, No Iterations 5
ExecutionTime = 0.09 s  ClockTime = 0 s

scalarTransport execute: age
smoothSolver:  Solving for age, Initial residual = 0.379099, Final residual = 0.0363399, No Iterations 8

Time = 4

smoothSolver:  Solving for Ux, Initial residual = 0.111957, Final residual = 0.00993858, No Iterations 4
smoothSolver:  Solving for Uy, Initial residual = 0.04901, Final residual = 0.00331107, No Iterations 5
GAMG:  Solving for p, Initial residual = 0.0754152, Final residual = 0.0038699, No Iterations 3
time step continuity errors : sum local = 0.0108747, global = 0.000415247, cumulative = 0.00334073
smoothSolver:  Solving for omega, Initial residual = 0.151474, Final residual = 0.010384, No Iterations 5
smoothSolver:  Solving for k, Initial residual = 0.451794, Final residual = 0.0376351, No Iterations 5
ExecutionTime = 0.1 s  ClockTime = 0 s

scalarTransport execute: age
smoothSolver:  Solving for age, Initial residual = 0.343706, Final residual = 0.0295118, No Iterations 3

Time = 5

smoothSolver:  Solving for Ux, Initial residual = 0.0716393, Final residual = 0.00567044, No Iterations 5
smoothSolver:  Solving for Uy, Initial residual = 0.0327155, Final residual = 0.00215332, No Iterations 5
GAMG:  Solving for p, Initial residual = 0.0730988, Final residual = 0.00299254, No Iterations 2
time step continuity errors : sum local = 0.00734823, global = 0.000164844, cumulative = 0.00350558
smoothSolver:  Solving for omega, Initial residual = 0.103213, Final residual = 0.0078221, No Iterations 5
smoothSolver:  Solving for k, Initial residual = 0.366419, Final residual = 0.0330205, No Iterations 5
ExecutionTime = 0.12 s  ClockTime = 0 s

scalarTransport execute: age
smoothSolver:  Solving for age, Initial residual = 0.255434, Final residual = 0.0227086, No Iterations 5

Time = 6

smoothSolver:  Solving for Ux, Initial residual = 0.0544123, Final residual = 0.00531386, No Iterations 5
smoothSolver:  Solving for Uy, Initial residual = 0.02696, Final residual = 0.00194549, No Iterations 5
GAMG:  Solving for p, Initial residual = 0.0578798, Final residual = 0.00304017, No Iterations 2
time step continuity errors : sum local = 0.00798047, global = 2.94136e-05, cumulative = 0.00353499
smoothSolver:  Solving for omega, Initial residual = 0.0799116, Final residual = 0.00646426, No Iterations 5
smoothSolver:  Solving for k, Initial residual = 0.291914, Final residual = 0.0278948, No Iterations 5
ExecutionTime = 0.13 s  ClockTime = 0 s

scalarTransport execute: age
smoothSolver:  Solving for age, Initial residual = 0.179391, Final residual = 0.0177078, No Iterations 7

Time = 7

smoothSolver:  Solving for Ux, Initial residual = 0.0476749, Final residual = 0.00314319, No Iterations 6
smoothSolver:  Solving for Uy, Initial residual = 0.0236824, Final residual = 0.00181326, No Iterations 5
GAMG:  Solving for p, Initial residual = 0.0480982, Final residual = 0.00354929, No Iterations 2
time step continuity errors : sum local = 0.00945867, global = -0.000437145, cumulative = 0.00309785
smoothSolver:  Solving for omega, Initial residual = 0.0614311, Final residual = 0.00529176, No Iterations 5
smoothSolver:  Solving for k, Initial residual = 0.240586, Final residual = 0.0239856, No Iterations 5
ExecutionTime = 0.14 s  ClockTime = 0 s

scalarTransport execute: age
smoothSolver:  Solving for age, Initial residual = 0.13631, Final residual = 0.0121246, No Iterations 10

Time = 8

smoothSolver:  Solving for Ux, Initial residual = 0.0402968, Final residual = 0.00383633, No Iterations 5
smoothSolver:  Solving for Uy, Initial residual = 0.0216938, Final residual = 0.00177014, No Iterations 5
GAMG:  Solving for p, Initial residual = 0.0401104, Final residual = 0.00288581, No Iterations 2
time step continuity errors : sum local = 0.00803354, global = -0.000681291, cumulative = 0.00241656
smoothSolver:  Solving for omega, Initial residual = 0.048772, Final residual = 0.00437473, No Iterations 5
smoothSolver:  Solving for k, Initial residual = 0.203942, Final residual = 0.0133613, No Iterations 6
ExecutionTime = 0.15 s  ClockTime = 0 s

scalarTransport execute: age
smoothSolver:  Solving for age, Initial residual = 0.112244, Final residual = 0.0105208, No Iterations 11

Time = 9

smoothSolver:  Solving for Ux, Initial residual = 0.0364361, Final residual = 0.00343776, No Iterations 5
smoothSolver:  Solving for Uy, Initial residual = 0.0205097, Final residual = 0.00171041, No Iterations 5
GAMG:  Solving for p, Initial residual = 0.0340702, Final residual = 0.00183945, No Iterations 2
time step continuity errors : sum local = 0.00532009, global = -0.000636113, cumulative = 0.00178044
smoothSolver:  Solving for omega, Initial residual = 0.0400878, Final residual = 0.0036977, No Iterations 5
smoothSolver:  Solving for k, Initial residual = 0.176647, Final residual = 0.0119262, No Iterations 6
ExecutionTime = 0.17 s  ClockTime = 0 s

scalarTransport execute: age
smoothSolver:  Solving for age, Initial residual = 0.0987647, Final residual = 0.00897042, No Iterations 12

Time = 10

smoothSolver:  Solving for Ux, Initial residual = 0.0349304, Final residual = 0.00340995, No Iterations 5
smoothSolver:  Solving for Uy, Initial residual = 0.0196617, Final residual = 0.00167427, No Iterations 5
GAMG:  Solving for p, Initial residual = 0.0295702, Final residual = 0.000843045, No Iterations 2
time step continuity errors : sum local = 0.00249107, global = -0.000559305, cumulative = 0.00122114
smoothSolver:  Solving for omega, Initial residual = 0.0333771, Final residual = 0.00315994, No Iterations 5
smoothSolver:  Solving for k, Initial residual = 0.155235, Final residual = 0.0107434, No Iterations 6
ExecutionTime = 0.18 s  ClockTime = 0 s

scalarTransport execute: age
smoothSolver:  Solving for age, Initial residual = 0.089634, Final residual = 0.00859184, No Iterations 12

Time = 11

smoothSolver:  Solving for Ux, Initial residual = 0.0323154, Final residual = 0.00212023, No Iterations 6
smoothSolver:  Solving for Uy, Initial residual = 0.0189128, Final residual = 0.00167676, No Iterations 5
GAMG:  Solving for p, Initial residual = 0.0269933, Final residual = 0.000889506, No Iterations 2
time step continuity errors : sum local = 0.00262348, global = -0.000441857, cumulative = 0.000779281
smoothSolver:  Solving for omega, Initial residual = 0.0281284, Final residual = 0.0027168, No Iterations 5
smoothSolver:  Solving for k, Initial residual = 0.138067, Final residual = 0.00974987, No Iterations 6
ExecutionTime = 0.19 s  ClockTime = 0 s

scalarTransport execute: age
smoothSolver:  Solving for age, Initial residual = 0.0814741, Final residual = 0.00807076, No Iterations 12

Time = 12

smoothSolver:  Solving for Ux, Initial residual = 0.0304309, Final residual = 0.00202298, No Iterations 6
smoothSolver:  Solving for Uy, Initial residual = 0.0183813, Final residual = 0.00167767, No Iterations 5
GAMG:  Solving for p, Initial residual = 0.0251481, Final residual = 0.000910662, No Iterations 2
time step continuity errors : sum local = 0.0026826, global = -0.000309188, cumulative = 0.000470093
smoothSolver:  Solving for omega, Initial residual = 0.0239824, Final residual = 0.00235561, No Iterations 5
smoothSolver:  Solving for k, Initial residual = 0.124084, Final residual = 0.00890979, No Iterations 6
ExecutionTime = 0.2 s  ClockTime = 0 s

scalarTransport execute: age
smoothSolver:  Solving for age, Initial residual = 0.0741765, Final residual = 0.0073715, No Iterations 12

Time = 13

smoothSolver:  Solving for Ux, Initial residual = 0.0291583, Final residual = 0.00195039, No Iterations 6
smoothSolver:  Solving for Uy, Initial residual = 0.0179283, Final residual = 0.00167475, No Iterations 5
GAMG:  Solving for p, Initial residual = 0.0238096, Final residual = 0.000894766, No Iterations 2
time step continuity errors : sum local = 0.00261981, global = -0.00015421, cumulative = 0.000315883
smoothSolver:  Solving for omega, Initial residual = 0.0207, Final residual = 0.002059, No Iterations 5
smoothSolver:  Solving for k, Initial residual = 0.112456, Final residual = 0.00818909, No Iterations 6
ExecutionTime = 0.22 s  ClockTime = 0 s

scalarTransport execute: age
smoothSolver:  Solving for age, Initial residual = 0.0669767, Final residual = 0.00651058, No Iterations 12

Time = 14

smoothSolver:  Solving for Ux, Initial residual = 0.0281433, Final residual = 0.00188894, No Iterations 6
smoothSolver:  Solving for Uy, Initial residual = 0.0176108, Final residual = 0.00166684, No Iterations 5
GAMG:  Solving for p, Initial residual = 0.0226809, Final residual = 0.000877978, No Iterations 2
time step continuity errors : sum local = 0.00255322, global = 4.67896e-06, cumulative = 0.000320562
smoothSolver:  Solving for omega, Initial residual = 0.0180286, Final residual = 0.00115863, No Iterations 6
smoothSolver:  Solving for k, Initial residual = 0.102383, Final residual = 0.00754795, No Iterations 6
ExecutionTime = 0.23 s  ClockTime = 0 s

scalarTransport execute: age
smoothSolver:  Solving for age, Initial residual = 0.0596125, Final residual = 0.0056395, No Iterations 12

Time = 15

smoothSolver:  Solving for Ux, Initial residual = 0.0271566, Final residual = 0.00182858, No Iterations 6
smoothSolver:  Solving for Uy, Initial residual = 0.0172611, Final residual = 0.0016472, No Iterations 5
GAMG:  Solving for p, Initial residual = 0.0217868, Final residual = 0.000853267, No Iterations 2
time step continuity errors : sum local = 0.00246305, global = 0.000146449, cumulative = 0.000467011
smoothSolver:  Solving for omega, Initial residual = 0.0157171, Final residual = 0.00102057, No Iterations 6
smoothSolver:  Solving for k, Initial residual = 0.09368, Final residual = 0.00698202, No Iterations 6
ExecutionTime = 0.24 s  ClockTime = 0 s

scalarTransport execute: age
smoothSolver:  Solving for age, Initial residual = 0.0523496, Final residual = 0.0047781, No Iterations 12

Time = 16

smoothSolver:  Solving for Ux, Initial residual = 0.0263054, Final residual = 0.00177615, No Iterations 6
smoothSolver:  Solving for Uy, Initial residual = 0.0168993, Final residual = 0.00161854, No Iterations 5
GAMG:  Solving for p, Initial residual = 0.0210142, Final residual = 0.00081619, No Iterations 2
time step continuity errors : sum local = 0.00233701, global = 0.000267019, cumulative = 0.00073403
smoothSolver:  Solving for omega, Initial residual = 0.0138232, Final residual = 0.0009052, No Iterations 6
smoothSolver:  Solving for k, Initial residual = 0.086247, Final residual = 0.00648678, No Iterations 6
ExecutionTime = 0.24 s  ClockTime = 0 s

scalarTransport execute: age
smoothSolver:  Solving for age, Initial residual = 0.0456098, Final residual = 0.00401996, No Iterations 12

Time = 17

smoothSolver:  Solving for Ux, Initial residual = 0.0255699, Final residual = 0.0017313, No Iterations 6
smoothSolver:  Solving for Uy, Initial residual = 0.0165507, Final residual = 0.00158335, No Iterations 5
GAMG:  Solving for p, Initial residual = 0.0202856, Final residual = 0.000777705, No Iterations 2
time step continuity errors : sum local = 0.00220491, global = 0.000359321, cumulative = 0.00109335
smoothSolver:  Solving for omega, Initial residual = 0.0122582, Final residual = 0.0008082, No Iterations 6
smoothSolver:  Solving for k, Initial residual = 0.0798103, Final residual = 0.00604909, No Iterations 6
ExecutionTime = 0.26 s  ClockTime = 0 s

scalarTransport execute: age
smoothSolver:  Solving for age, Initial residual = 0.0396006, Final residual = 0.00340515, No Iterations 12

Time = 18

smoothSolver:  Solving for Ux, Initial residual = 0.0249061, Final residual = 0.00169388, No Iterations 6
smoothSolver:  Solving for Uy, Initial residual = 0.0161489, Final residual = 0.0015437, No Iterations 5
GAMG:  Solving for p, Initial residual = 0.0195159, Final residual = 0.000748558, No Iterations 2
time step continuity errors : sum local = 0.0021024, global = 0.000417388, cumulative = 0.00151074
smoothSolver:  Solving for omega, Initial residual = 0.0109532, Final residual = 0.000725677, No Iterations 6
smoothSolver:  Solving for k, Initial residual = 0.0741781, Final residual = 0.00565907, No Iterations 6
ExecutionTime = 0.27 s  ClockTime = 0 s

scalarTransport execute: age
smoothSolver:  Solving for age, Initial residual = 0.0343688, Final residual = 0.00291272, No Iterations 12

Time = 19

smoothSolver:  Solving for Ux, Initial residual = 0.0243335, Final residual = 0.00166155, No Iterations 6
smoothSolver:  Solving for Uy, Initial residual = 0.0156787, Final residual = 0.00150131, No Iterations 5
GAMG:  Solving for p, Initial residual = 0.0186782, Final residual = 0.000724595, No Iterations 2
time step continuity errors : sum local = 0.00201837, global = 0.000439987, cumulative = 0.00195073
smoothSolver:  Solving for omega, Initial residual = 0.00985049, Final residual = 0.000655105, No Iterations 6
smoothSolver:  Solving for k, Initial residual = 0.0692121, Final residual = 0.00531011, No Iterations 6
ExecutionTime = 0.28 s  ClockTime = 0 s

scalarTransport execute: age
smoothSolver:  Solving for age, Initial residual = 0.0300527, Final residual = 0.00298409, No Iterations 11

Time = 20

smoothSolver:  Solving for Ux, Initial residual = 0.0238403, Final residual = 0.00163411, No Iterations 6
smoothSolver:  Solving for Uy, Initial residual = 0.0151601, Final residual = 0.00145728, No Iterations 5
GAMG:  Solving for p, Initial residual = 0.0177747, Final residual = 0.000699029, No Iterations 2
time step continuity errors : sum local = 0.00193011, global = 0.000432299, cumulative = 0.00238303
smoothSolver:  Solving for omega, Initial residual = 0.00891535, Final residual = 0.000594378, No Iterations 6
smoothSolver:  Solving for k, Initial residual = 0.0648064, Final residual = 0.00499612, No Iterations 6
ExecutionTime = 0.31 s  ClockTime = 0 s

scalarTransport execute: age
smoothSolver:  Solving for age, Initial residual = 0.026732, Final residual = 0.00229805, No Iterations 12

Time = 21

smoothSolver:  Solving for Ux, Initial residual = 0.0233813, Final residual = 0.00161071, No Iterations 6
smoothSolver:  Solving for Uy, Initial residual = 0.0146754, Final residual = 0.00141346, No Iterations 5
GAMG:  Solving for p, Initial residual = 0.0168927, Final residual = 0.000666282, No Iterations 2
time step continuity errors : sum local = 0.00182411, global = 0.00040506, cumulative = 0.00278808
smoothSolver:  Solving for omega, Initial residual = 0.00809664, Final residual = 0.000541527, No Iterations 6
smoothSolver:  Solving for k, Initial residual = 0.0608616, Final residual = 0.00471201, No Iterations 6
ExecutionTime = 0.32 s  ClockTime = 0 s

scalarTransport execute: age
smoothSolver:  Solving for age, Initial residual = 0.0239823, Final residual = 0.00205206, No Iterations 12

Time = 22

smoothSolver:  Solving for Ux, Initial residual = 0.0229808, Final residual = 0.00159149, No Iterations 6
smoothSolver:  Solving for Uy, Initial residual = 0.014214, Final residual = 0.00137102, No Iterations 5
GAMG:  Solving for p, Initial residual = 0.016182, Final residual = 0.000630544, No Iterations 2
time step continuity errors : sum local = 0.00171241, global = 0.000367845, cumulative = 0.00315593
smoothSolver:  Solving for omega, Initial residual = 0.00739662, Final residual = 0.000495465, No Iterations 6
smoothSolver:  Solving for k, Initial residual = 0.0573146, Final residual = 0.00445384, No Iterations 6
ExecutionTime = 0.33 s  ClockTime = 0 s

scalarTransport execute: age
smoothSolver:  Solving for age, Initial residual = 0.0218516, Final residual = 0.00212343, No Iterations 11

Time = 23

smoothSolver:  Solving for Ux, Initial residual = 0.022624, Final residual = 0.00157712, No Iterations 6
smoothSolver:  Solving for Uy, Initial residual = 0.013764, Final residual = 0.00132964, No Iterations 5
GAMG:  Solving for p, Initial residual = 0.015865, Final residual = 0.000595776, No Iterations 2
time step continuity errors : sum local = 0.00160693, global = 0.000328278, cumulative = 0.00348421
smoothSolver:  Solving for omega, Initial residual = 0.00678539, Final residual = 0.000455021, No Iterations 6
smoothSolver:  Solving for k, Initial residual = 0.0541051, Final residual = 0.00421799, No Iterations 6
ExecutionTime = 0.34 s  ClockTime = 0 s

scalarTransport execute: age
smoothSolver:  Solving for age, Initial residual = 0.0201737, Final residual = 0.00188923, No Iterations 11

Time = 24

smoothSolver:  Solving for Ux, Initial residual = 0.0223253, Final residual = 0.00156665, No Iterations 6
smoothSolver:  Solving for Uy, Initial residual = 0.0133868, Final residual = 0.00128953, No Iterations 5
GAMG:  Solving for p, Initial residual = 0.0158211, Final residual = 0.000571819, No Iterations 2
time step continuity errors : sum local = 0.00153342, global = 0.000290314, cumulative = 0.00377452
smoothSolver:  Solving for omega, Initial residual = 0.00625481, Final residual = 0.000419213, No Iterations 6
smoothSolver:  Solving for k, Initial residual = 0.0511811, Final residual = 0.00400126, No Iterations 6
ExecutionTime = 0.36 s  ClockTime = 0 s

scalarTransport execute: age
smoothSolver:  Solving for age, Initial residual = 0.0187789, Final residual = 0.00169071, No Iterations 11

Time = 25

smoothSolver:  Solving for Ux, Initial residual = 0.0221202, Final residual = 0.00155948, No Iterations 6
smoothSolver:  Solving for Uy, Initial residual = 0.0130042, Final residual = 0.00124867, No Iterations 5
GAMG:  Solving for p, Initial residual = 0.0158041, Final residual = 0.000556284, No Iterations 2
time step continuity errors : sum local = 0.0014863, global = 0.000255636, cumulative = 0.00403016
smoothSolver:  Solving for omega, Initial residual = 0.00578943, Final residual = 0.000387273, No Iterations 6
smoothSolver:  Solving for k, Initial residual = 0.0485066, Final residual = 0.00380172, No Iterations 6
ExecutionTime = 0.37 s  ClockTime = 0 s

scalarTransport execute: age
smoothSolver:  Solving for age, Initial residual = 0.0176124, Final residual = 0.00153888, No Iterations 11

Time = 26

smoothSolver:  Solving for Ux, Initial residual = 0.0220141, Final residual = 0.00155502, No Iterations 6
smoothSolver:  Solving for Uy, Initial residual = 0.0126215, Final residual = 0.00120705, No Iterations 5
GAMG:  Solving for p, Initial residual = 0.0156228, Final residual = 0.000560746, No Iterations 2
time step continuity errors : sum local = 0.00149119, global = 0.000227876, cumulative = 0.00425804
smoothSolver:  Solving for omega, Initial residual = 0.00537566, Final residual = 0.00035864, No Iterations 6
smoothSolver:  Solving for k, Initial residual = 0.0460453, Final residual = 0.00361697, No Iterations 6
ExecutionTime = 0.38 s  ClockTime = 0 s

scalarTransport execute: age
smoothSolver:  Solving for age, Initial residual = 0.0166982, Final residual = 0.00142948, No Iterations 11

Time = 27

smoothSolver:  Solving for Ux, Initial residual = 0.0219619, Final residual = 0.00155193, No Iterations 6
smoothSolver:  Solving for Uy, Initial residual = 0.0122037, Final residual = 0.00116373, No Iterations 5
GAMG:  Solving for p, Initial residual = 0.0153931, Final residual = 0.00056417, No Iterations 2
time step continuity errors : sum local = 0.00149595, global = 0.000204584, cumulative = 0.00446262
smoothSolver:  Solving for omega, Initial residual = 0.00500456, Final residual = 0.000332837, No Iterations 6
smoothSolver:  Solving for k, Initial residual = 0.0437735, Final residual = 0.00344576, No Iterations 6
ExecutionTime = 0.4 s  ClockTime = 0 s

scalarTransport execute: age
smoothSolver:  Solving for age, Initial residual = 0.0160647, Final residual = 0.00158494, No Iterations 10

Time = 28

smoothSolver:  Solving for Ux, Initial residual = 0.0219414, Final residual = 0.00155071, No Iterations 6
smoothSolver:  Solving for Uy, Initial residual = 0.0117617, Final residual = 0.00111858, No Iterations 5
GAMG:  Solving for p, Initial residual = 0.0150471, Final residual = 0.000561882, No Iterations 2
time step continuity errors : sum local = 0.00148696, global = 0.000185662, cumulative = 0.00464828
smoothSolver:  Solving for omega, Initial residual = 0.00467107, Final residual = 0.000309546, No Iterations 6
smoothSolver:  Solving for k, Initial residual = 0.0416706, Final residual = 0.00328673, No Iterations 6
ExecutionTime = 0.41 s  ClockTime = 0 s

scalarTransport execute: age
smoothSolver:  Solving for age, Initial residual = 0.0157405, Final residual = 0.00154403, No Iterations 10

Time = 29

smoothSolver:  Solving for Ux, Initial residual = 0.0219567, Final residual = 0.00155051, No Iterations 6
smoothSolver:  Solving for Uy, Initial residual = 0.0112868, Final residual = 0.00107219, No Iterations 5
GAMG:  Solving for p, Initial residual = 0.0144486, Final residual = 0.000553279, No Iterations 2
time step continuity errors : sum local = 0.00146231, global = 0.000171189, cumulative = 0.00481947
smoothSolver:  Solving for omega, Initial residual = 0.0043731, Final residual = 0.000288469, No Iterations 6
smoothSolver:  Solving for k, Initial residual = 0.0397188, Final residual = 0.00313879, No Iterations 6
ExecutionTime = 0.42 s  ClockTime = 0 s

scalarTransport execute: age
smoothSolver:  Solving for age, Initial residual = 0.0156414, Final residual = 0.0015272, No Iterations 10

Time = 30

smoothSolver:  Solving for Ux, Initial residual = 0.0219688, Final residual = 0.00155154, No Iterations 6
smoothSolver:  Solving for Uy, Initial residual = 0.010795, Final residual = 0.00102647, No Iterations 5
GAMG:  Solving for p, Initial residual = 0.0138117, Final residual = 0.000535589, No Iterations 2
time step continuity errors : sum local = 0.00141536, global = 0.000160366, cumulative = 0.00497984
smoothSolver:  Solving for omega, Initial residual = 0.00409946, Final residual = 0.000269213, No Iterations 6
smoothSolver:  Solving for k, Initial residual = 0.0379008, Final residual = 0.00300091, No Iterations 6
ExecutionTime = 0.43 s  ClockTime = 0 s

scalarTransport execute: age
smoothSolver:  Solving for age, Initial residual = 0.0157146, Final residual = 0.00153228, No Iterations 10

Time = 31

smoothSolver:  Solving for Ux, Initial residual = 0.0219688, Final residual = 0.00155282, No Iterations 6
smoothSolver:  Solving for Uy, Initial residual = 0.0102962, Final residual = 0.00098271, No Iterations 5
GAMG:  Solving for p, Initial residual = 0.0132062, Final residual = 0.000513116, No Iterations 2
time step continuity errors : sum local = 0.00135662, global = 0.000147592, cumulative = 0.00512743
smoothSolver:  Solving for omega, Initial residual = 0.00385488, Final residual = 0.000251549, No Iterations 6
smoothSolver:  Solving for k, Initial residual = 0.0362079, Final residual = 0.00287264, No Iterations 6
ExecutionTime = 0.45 s  ClockTime = 0 s

scalarTransport execute: age
smoothSolver:  Solving for age, Initial residual = 0.0159558, Final residual = 0.00156565, No Iterations 10

Time = 32

smoothSolver:  Solving for Ux, Initial residual = 0.0219344, Final residual = 0.00155404, No Iterations 6
smoothSolver:  Solving for Uy, Initial residual = 0.00983707, Final residual = 0.000943483, No Iterations 5
GAMG:  Solving for p, Initial residual = 0.012635, Final residual = 0.000499306, No Iterations 2
time step continuity errors : sum local = 0.00131863, global = 0.000137239, cumulative = 0.00526467
smoothSolver:  Solving for omega, Initial residual = 0.00363071, Final residual = 0.00023536, No Iterations 6
smoothSolver:  Solving for k, Initial residual = 0.0346296, Final residual = 0.0027531, No Iterations 6
ExecutionTime = 0.46 s  ClockTime = 0 s

scalarTransport execute: age
smoothSolver:  Solving for age, Initial residual = 0.016154, Final residual = 0.00139575, No Iterations 11

Time = 33

smoothSolver:  Solving for Ux, Initial residual = 0.0218524, Final residual = 0.00155267, No Iterations 6
smoothSolver:  Solving for Uy, Initial residual = 0.0094479, Final residual = 0.000908865, No Iterations 5
GAMG:  Solving for p, Initial residual = 0.0123752, Final residual = 0.000502858, No Iterations 2
time step continuity errors : sum local = 0.00132518, global = 0.000128933, cumulative = 0.0053936
smoothSolver:  Solving for omega, Initial residual = 0.00342607, Final residual = 0.000340141, No Iterations 5
smoothSolver:  Solving for k, Initial residual = 0.0331948, Final residual = 0.0026442, No Iterations 6
ExecutionTime = 0.47 s  ClockTime = 0 s

scalarTransport execute: age
smoothSolver:  Solving for age, Initial residual = 0.0164148, Final residual = 0.00145174, No Iterations 11

Time = 34

smoothSolver:  Solving for Ux, Initial residual = 0.0217818, Final residual = 0.00154931, No Iterations 6
smoothSolver:  Solving for Uy, Initial residual = 0.00910861, Final residual = 0.00087932, No Iterations 5
GAMG:  Solving for p, Initial residual = 0.0121913, Final residual = 0.000520954, No Iterations 2
time step continuity errors : sum local = 0.00137071, global = 0.0001233, cumulative = 0.0055169
smoothSolver:  Solving for omega, Initial residual = 0.00325144, Final residual = 0.000320525, No Iterations 5
smoothSolver:  Solving for k, Initial residual = 0.0318777, Final residual = 0.00254366, No Iterations 6
ExecutionTime = 0.48 s  ClockTime = 0 s

scalarTransport execute: age
smoothSolver:  Solving for age, Initial residual = 0.0167251, Final residual = 0.00150676, No Iterations 11

Time = 35

smoothSolver:  Solving for Ux, Initial residual = 0.0217151, Final residual = 0.00154289, No Iterations 6
smoothSolver:  Solving for Uy, Initial residual = 0.00881016, Final residual = 0.000854932, No Iterations 5
GAMG:  Solving for p, Initial residual = 0.0118556, Final residual = 0.000540712, No Iterations 2
time step continuity errors : sum local = 0.00141877, global = 0.000124294, cumulative = 0.00564119
smoothSolver:  Solving for omega, Initial residual = 0.00309013, Final residual = 0.000302227, No Iterations 5
smoothSolver:  Solving for k, Initial residual = 0.0306505, Final residual = 0.0024495, No Iterations 6
ExecutionTime = 0.5 s  ClockTime = 1 s

scalarTransport execute: age
smoothSolver:  Solving for age, Initial residual = 0.0170186, Final residual = 0.00157438, No Iterations 11

Time = 36

smoothSolver:  Solving for Ux, Initial residual = 0.0216153, Final residual = 0.00153313, No Iterations 6
smoothSolver:  Solving for Uy, Initial residual = 0.00855493, Final residual = 0.000836074, No Iterations 5
GAMG:  Solving for p, Initial residual = 0.011611, Final residual = 0.00056705, No Iterations 2
time step continuity errors : sum local = 0.00148562, global = 0.000127505, cumulative = 0.0057687
smoothSolver:  Solving for omega, Initial residual = 0.0029402, Final residual = 0.00028517, No Iterations 5
smoothSolver:  Solving for k, Initial residual = 0.0295087, Final residual = 0.00236134, No Iterations 6
ExecutionTime = 0.51 s  ClockTime = 1 s

scalarTransport execute: age
smoothSolver:  Solving for age, Initial residual = 0.0172543, Final residual = 0.00163825, No Iterations 11

Time = 37

smoothSolver:  Solving for Ux, Initial residual = 0.0214885, Final residual = 0.00152103, No Iterations 6
smoothSolver:  Solving for Uy, Initial residual = 0.00836207, Final residual = 0.000823008, No Iterations 5
GAMG:  Solving for p, Initial residual = 0.0114506, Final residual = 0.000600562, No Iterations 2
time step continuity errors : sum local = 0.0015723, global = 0.000133867, cumulative = 0.00590257
smoothSolver:  Solving for omega, Initial residual = 0.00279847, Final residual = 0.000269239, No Iterations 5
smoothSolver:  Solving for k, Initial residual = 0.0284456, Final residual = 0.00227854, No Iterations 6
ExecutionTime = 0.52 s  ClockTime = 1 s

scalarTransport execute: age
smoothSolver:  Solving for age, Initial residual = 0.0174118, Final residual = 0.00168144, No Iterations 11

Time = 38

smoothSolver:  Solving for Ux, Initial residual = 0.0213226, Final residual = 0.00150665, No Iterations 6
smoothSolver:  Solving for Uy, Initial residual = 0.00822983, Final residual = 0.000815506, No Iterations 5
GAMG:  Solving for p, Initial residual = 0.0114082, Final residual = 0.000632783, No Iterations 2
time step continuity errors : sum local = 0.00165657, global = 0.00014145, cumulative = 0.00604402
smoothSolver:  Solving for omega, Initial residual = 0.00267149, Final residual = 0.000254295, No Iterations 5
smoothSolver:  Solving for k, Initial residual = 0.0274572, Final residual = 0.00220083, No Iterations 6
ExecutionTime = 0.53 s  ClockTime = 1 s

scalarTransport execute: age
smoothSolver:  Solving for age, Initial residual = 0.0175312, Final residual = 0.0017099, No Iterations 11

Time = 39

smoothSolver:  Solving for Ux, Initial residual = 0.021134, Final residual = 0.00149117, No Iterations 6
smoothSolver:  Solving for Uy, Initial residual = 0.00814623, Final residual = 0.000814165, No Iterations 5
GAMG:  Solving for p, Initial residual = 0.0113094, Final residual = 0.000654767, No Iterations 2
time step continuity errors : sum local = 0.00171199, global = 0.000149621, cumulative = 0.00619364
smoothSolver:  Solving for omega, Initial residual = 0.00255342, Final residual = 0.000240269, No Iterations 5
smoothSolver:  Solving for k, Initial residual = 0.0265384, Final residual = 0.00212798, No Iterations 6
ExecutionTime = 0.55 s  ClockTime = 1 s

scalarTransport execute: age
smoothSolver:  Solving for age, Initial residual = 0.0175604, Final residual = 0.00171014, No Iterations 11

Time = 40

smoothSolver:  Solving for Ux, Initial residual = 0.020927, Final residual = 0.00147503, No Iterations 6
smoothSolver:  Solving for Uy, Initial residual = 0.00811407, Final residual = 0.000533663, No Iterations 6
GAMG:  Solving for p, Initial residual = 0.0111445, Final residual = 0.000662115, No Iterations 2
time step continuity errors : sum local = 0.00172599, global = 0.00015901, cumulative = 0.00635265
smoothSolver:  Solving for omega, Initial residual = 0.00244373, Final residual = 0.000227164, No Iterations 5
smoothSolver:  Solving for k, Initial residual = 0.0256841, Final residual = 0.00205957, No Iterations 6
ExecutionTime = 0.56 s  ClockTime = 1 s

scalarTransport execute: age
smoothSolver:  Solving for age, Initial residual = 0.0175148, Final residual = 0.0017013, No Iterations 11

Time = 41

smoothSolver:  Solving for Ux, Initial residual = 0.0207188, Final residual = 0.00145984, No Iterations 6
smoothSolver:  Solving for Uy, Initial residual = 0.00803258, Final residual = 0.000534087, No Iterations 6
GAMG:  Solving for p, Initial residual = 0.0109903, Final residual = 0.000678152, No Iterations 2
time step continuity errors : sum local = 0.00176356, global = 0.000168389, cumulative = 0.00652104
smoothSolver:  Solving for omega, Initial residual = 0.0023381, Final residual = 0.000215038, No Iterations 5
smoothSolver:  Solving for k, Initial residual = 0.0248817, Final residual = 0.00199511, No Iterations 6
ExecutionTime = 0.57 s  ClockTime = 1 s

scalarTransport execute: age
smoothSolver:  Solving for age, Initial residual = 0.0173233, Final residual = 0.0017001, No Iterations 11

Time = 42

smoothSolver:  Solving for Ux, Initial residual = 0.0204902, Final residual = 0.0014443, No Iterations 6
smoothSolver:  Solving for Uy, Initial residual = 0.00800952, Final residual = 0.000538801, No Iterations 6
GAMG:  Solving for p, Initial residual = 0.0108107, Final residual = 0.000698639, No Iterations 2
time step continuity errors : sum local = 0.00181283, global = 0.000175858, cumulative = 0.00669689
smoothSolver:  Solving for omega, Initial residual = 0.00223253, Final residual = 0.000203743, No Iterations 5
smoothSolver:  Solving for k, Initial residual = 0.0241273, Final residual = 0.00193434, No Iterations 6
ExecutionTime = 0.58 s  ClockTime = 1 s

scalarTransport execute: age
smoothSolver:  Solving for age, Initial residual = 0.0172338, Final residual = 0.00151621, No Iterations 12

Time = 43

smoothSolver:  Solving for Ux, Initial residual = 0.0202433, Final residual = 0.00142826, No Iterations 6
smoothSolver:  Solving for Uy, Initial residual = 0.00805358, Final residual = 0.000548443, No Iterations 6
GAMG:  Solving for p, Initial residual = 0.0106205, Final residual = 0.000713533, No Iterations 2
time step continuity errors : sum local = 0.00184791, global = 0.000180258, cumulative = 0.00687715
smoothSolver:  Solving for omega, Initial residual = 0.00212872, Final residual = 0.000193283, No Iterations 5
smoothSolver:  Solving for k, Initial residual = 0.0234167, Final residual = 0.00187696, No Iterations 6
ExecutionTime = 0.6 s  ClockTime = 1 s

scalarTransport execute: age
smoothSolver:  Solving for age, Initial residual = 0.0171769, Final residual = 0.00157148, No Iterations 12

Time = 44

smoothSolver:  Solving for Ux, Initial residual = 0.0199919, Final residual = 0.0014125, No Iterations 6
smoothSolver:  Solving for Uy, Initial residual = 0.00814483, Final residual = 0.000562174, No Iterations 6
GAMG:  Solving for p, Initial residual = 0.0104177, Final residual = 0.000731088, No Iterations 2
time step continuity errors : sum local = 0.00189002, global = 0.000183613, cumulative = 0.00706077
smoothSolver:  Solving for omega, Initial residual = 0.00203878, Final residual = 0.00018349, No Iterations 5
smoothSolver:  Solving for k, Initial residual = 0.0227471, Final residual = 0.00182269, No Iterations 6
ExecutionTime = 0.61 s  ClockTime = 1 s

scalarTransport execute: age
smoothSolver:  Solving for age, Initial residual = 0.0171863, Final residual = 0.00162124, No Iterations 12

Time = 45

smoothSolver:  Solving for Ux, Initial residual = 0.0197195, Final residual = 0.0013958, No Iterations 6
smoothSolver:  Solving for Uy, Initial residual = 0.00826656, Final residual = 0.00057833, No Iterations 6
GAMG:  Solving for p, Initial residual = 0.0101952, Final residual = 0.000746613, No Iterations 2
time step continuity errors : sum local = 0.00192814, global = 0.000186091, cumulative = 0.00724686
smoothSolver:  Solving for omega, Initial residual = 0.00195391, Final residual = 0.00017414, No Iterations 5
smoothSolver:  Solving for k, Initial residual = 0.0221208, Final residual = 0.00177145, No Iterations 6
ExecutionTime = 0.62 s  ClockTime = 1 s

scalarTransport execute: age
smoothSolver:  Solving for age, Initial residual = 0.0173785, Final residual = 0.00167256, No Iterations 12

Time = 46

smoothSolver:  Solving for Ux, Initial residual = 0.0194102, Final residual = 0.0013778, No Iterations 6
smoothSolver:  Solving for Uy, Initial residual = 0.00841697, Final residual = 0.000596201, No Iterations 6
GAMG:  Solving for p, Initial residual = 0.00995275, Final residual = 0.000760254, No Iterations 2
time step continuity errors : sum local = 0.00196187, global = 0.00018779, cumulative = 0.00743465
smoothSolver:  Solving for omega, Initial residual = 0.00187177, Final residual = 0.000165452, No Iterations 5
smoothSolver:  Solving for k, Initial residual = 0.0215298, Final residual = 0.00172287, No Iterations 6
ExecutionTime = 0.64 s  ClockTime = 1 s

scalarTransport execute: age
smoothSolver:  Solving for age, Initial residual = 0.0176233, Final residual = 0.00172057, No Iterations 12

Time = 47

smoothSolver:  Solving for Ux, Initial residual = 0.0190929, Final residual = 0.00135916, No Iterations 6
smoothSolver:  Solving for Uy, Initial residual = 0.0085848, Final residual = 0.000614871, No Iterations 6
GAMG:  Solving for p, Initial residual = 0.0097157, Final residual = 0.000771888, No Iterations 2
time step continuity errors : sum local = 0.00199035, global = 0.000189211, cumulative = 0.00762386
smoothSolver:  Solving for omega, Initial residual = 0.0017945, Final residual = 0.000157328, No Iterations 5
smoothSolver:  Solving for k, Initial residual = 0.0209726, Final residual = 0.00167667, No Iterations 6
ExecutionTime = 0.65 s  ClockTime = 1 s

scalarTransport execute: age
smoothSolver:  Solving for age, Initial residual = 0.0179075, Final residual = 0.0017663, No Iterations 12

Time = 48

smoothSolver:  Solving for Ux, Initial residual = 0.0187701, Final residual = 0.00134015, No Iterations 6
smoothSolver:  Solving for Uy, Initial residual = 0.00875971, Final residual = 0.000633443, No Iterations 6
GAMG:  Solving for p, Initial residual = 0.0095322, Final residual = 0.000785174, No Iterations 2
time step continuity errors : sum local = 0.00202307, global = 0.000191558, cumulative = 0.00781541
smoothSolver:  Solving for omega, Initial residual = 0.00172141, Final residual = 0.000149682, No Iterations 5
smoothSolver:  Solving for k, Initial residual = 0.0204451, Final residual = 0.00163273, No Iterations 6
ExecutionTime = 0.66 s  ClockTime = 1 s

scalarTransport execute: age
smoothSolver:  Solving for age, Initial residual = 0.0181342, Final residual = 0.0018093, No Iterations 12

Time = 49

smoothSolver:  Solving for Ux, Initial residual = 0.0184414, Final residual = 0.00132073, No Iterations 6
smoothSolver:  Solving for Uy, Initial residual = 0.00894306, Final residual = 0.000651616, No Iterations 6
GAMG:  Solving for p, Initial residual = 0.00936646, Final residual = 0.000796811, No Iterations 2
time step continuity errors : sum local = 0.00204949, global = 0.000193589, cumulative = 0.008009
smoothSolver:  Solving for omega, Initial residual = 0.00165432, Final residual = 0.000142621, No Iterations 5
smoothSolver:  Solving for k, Initial residual = 0.0199481, Final residual = 0.0015909, No Iterations 6
ExecutionTime = 0.67 s  ClockTime = 1 s

scalarTransport execute: age
smoothSolver:  Solving for age, Initial residual = 0.0183186, Final residual = 0.001616, No Iterations 13

Time = 50

smoothSolver:  Solving for Ux, Initial residual = 0.0181404, Final residual = 0.00130182, No Iterations 6
smoothSolver:  Solving for Uy, Initial residual = 0.00913068, Final residual = 0.000668893, No Iterations 6
GAMG:  Solving for p, Initial residual = 0.00924847, Final residual = 0.000809628, No Iterations 2
time step continuity errors : sum local = 0.00207824, global = 0.000196465, cumulative = 0.00820547
smoothSolver:  Solving for omega, Initial residual = 0.00159573, Final residual = 0.000136161, No Iterations 5
smoothSolver:  Solving for k, Initial residual = 0.0194775, Final residual = 0.00155103, No Iterations 6
ExecutionTime = 0.69 s  ClockTime = 1 s

scalarTransport execute: age
smoothSolver:  Solving for age, Initial residual = 0.018407, Final residual = 0.00163483, No Iterations 13

Time = 51

smoothSolver:  Solving for Ux, Initial residual = 0.0178665, Final residual = 0.00128341, No Iterations 6
smoothSolver:  Solving for Uy, Initial residual = 0.00931246, Final residual = 0.000685008, No Iterations 6
GAMG:  Solving for p, Initial residual = 0.00915348, Final residual = 0.000825927, No Iterations 2
time step continuity errors : sum local = 0.00211537, global = 0.000198213, cumulative = 0.00840368
smoothSolver:  Solving for omega, Initial residual = 0.00154268, Final residual = 0.000130153, No Iterations 5
smoothSolver:  Solving for k, Initial residual = 0.0190309, Final residual = 0.00151299, No Iterations 6
ExecutionTime = 0.7 s  ClockTime = 1 s

scalarTransport execute: age
smoothSolver:  Solving for age, Initial residual = 0.0184551, Final residual = 0.00165251, No Iterations 13

Time = 52

smoothSolver:  Solving for Ux, Initial residual = 0.0176087, Final residual = 0.00126522, No Iterations 6
smoothSolver:  Solving for Uy, Initial residual = 0.00947814, Final residual = 0.000699485, No Iterations 6
GAMG:  Solving for p, Initial residual = 0.0089318, Final residual = 0.000836985, No Iterations 2
time step continuity errors : sum local = 0.00213569, global = 0.000198337, cumulative = 0.00860202
smoothSolver:  Solving for omega, Initial residual = 0.00148419, Final residual = 0.000124519, No Iterations 5
smoothSolver:  Solving for k, Initial residual = 0.0186069, Final residual = 0.00147662, No Iterations 6
ExecutionTime = 0.71 s  ClockTime = 1 s

scalarTransport execute: age
smoothSolver:  Solving for age, Initial residual = 0.0186, Final residual = 0.00166807, No Iterations 13

Time = 53

smoothSolver:  Solving for Ux, Initial residual = 0.0173585, Final residual = 0.00124765, No Iterations 6
smoothSolver:  Solving for Uy, Initial residual = 0.00961575, Final residual = 0.00071219, No Iterations 6
GAMG:  Solving for p, Initial residual = 0.00882057, Final residual = 0.000848976, No Iterations 2
time step continuity errors : sum local = 0.0021585, global = 0.000197085, cumulative = 0.0087991
smoothSolver:  Solving for omega, Initial residual = 0.00144045, Final residual = 0.000119401, No Iterations 5
smoothSolver:  Solving for k, Initial residual = 0.0182015, Final residual = 0.00144179, No Iterations 6
ExecutionTime = 0.73 s  ClockTime = 1 s

scalarTransport execute: age
smoothSolver:  Solving for age, Initial residual = 0.0187872, Final residual = 0.00168078, No Iterations 13

Time = 54

smoothSolver:  Solving for Ux, Initial residual = 0.0171127, Final residual = 0.0012305, No Iterations 6
smoothSolver:  Solving for Uy, Initial residual = 0.00973265, Final residual = 0.000722779, No Iterations 6
GAMG:  Solving for p, Initial residual = 0.00881278, Final residual = 0.000860572, No Iterations 2
time step continuity errors : sum local = 0.00218066, global = 0.000194794, cumulative = 0.0089939
smoothSolver:  Solving for omega, Initial residual = 0.00140263, Final residual = 0.000114754, No Iterations 5
smoothSolver:  Solving for k, Initial residual = 0.0178135, Final residual = 0.0014083, No Iterations 6
ExecutionTime = 0.73 s  ClockTime = 1 s

scalarTransport execute: age
smoothSolver:  Solving for age, Initial residual = 0.0190213, Final residual = 0.00169614, No Iterations 13

Time = 55

smoothSolver:  Solving for Ux, Initial residual = 0.0168813, Final residual = 0.00121373, No Iterations 6
smoothSolver:  Solving for Uy, Initial residual = 0.00982524, Final residual = 0.000731606, No Iterations 6
GAMG:  Solving for p, Initial residual = 0.00887179, Final residual = 0.000873782, No Iterations 2
time step continuity errors : sum local = 0.00220659, global = 0.000191846, cumulative = 0.00918574
smoothSolver:  Solving for omega, Initial residual = 0.00136703, Final residual = 0.000110482, No Iterations 5
smoothSolver:  Solving for k, Initial residual = 0.0174406, Final residual = 0.0013761, No Iterations 6
ExecutionTime = 0.74 s  ClockTime = 1 s

scalarTransport execute: age
smoothSolver:  Solving for age, Initial residual = 0.0192542, Final residual = 0.00171063, No Iterations 13

Time = 56

smoothSolver:  Solving for Ux, Initial residual = 0.0166811, Final residual = 0.00119752, No Iterations 6
smoothSolver:  Solving for Uy, Initial residual = 0.00988685, Final residual = 0.000738411, No Iterations 6
GAMG:  Solving for p, Initial residual = 0.00895006, Final residual = 0.000873212, No Iterations 2
time step continuity errors : sum local = 0.00219716, global = 0.000178296, cumulative = 0.00936404
smoothSolver:  Solving for omega, Initial residual = 0.00133366, Final residual = 0.000106563, No Iterations 5
smoothSolver:  Solving for k, Initial residual = 0.0170818, Final residual = 0.00134502, No Iterations 6
ExecutionTime = 0.75 s  ClockTime = 1 s

scalarTransport execute: age
smoothSolver:  Solving for age, Initial residual = 0.019536, Final residual = 0.00174091, No Iterations 13

Time = 57

smoothSolver:  Solving for Ux, Initial residual = 0.0165307, Final residual = 0.00118408, No Iterations 6
smoothSolver:  Solving for Uy, Initial residual = 0.0099222, Final residual = 0.00074263, No Iterations 6
GAMG:  Solving for p, Initial residual = 0.00900791, Final residual = 0.00088488, No Iterations 2
time step continuity errors : sum local = 0.00221779, global = 0.000172761, cumulative = 0.0095368
smoothSolver:  Solving for omega, Initial residual = 0.00129841, Final residual = 0.000102964, No Iterations 5
smoothSolver:  Solving for k, Initial residual = 0.0167347, Final residual = 0.00131504, No Iterations 6
ExecutionTime = 0.77 s  ClockTime = 1 s

scalarTransport execute: age
smoothSolver:  Solving for age, Initial residual = 0.0197006, Final residual = 0.00178636, No Iterations 13

Time = 58

smoothSolver:  Solving for Ux, Initial residual = 0.0163871, Final residual = 0.00117164, No Iterations 6
smoothSolver:  Solving for Uy, Initial residual = 0.00993677, Final residual = 0.000745622, No Iterations 6
GAMG:  Solving for p, Initial residual = 0.00904836, Final residual = 0.000891049, No Iterations 2
time step continuity errors : sum local = 0.00222677, global = 0.000168178, cumulative = 0.00970498
smoothSolver:  Solving for omega, Initial residual = 0.00127148, Final residual = 9.96383e-05, No Iterations 5
smoothSolver:  Solving for k, Initial residual = 0.0164011, Final residual = 0.00128612, No Iterations 6
ExecutionTime = 0.78 s  ClockTime = 1 s

scalarTransport execute: age
smoothSolver:  Solving for age, Initial residual = 0.0198999, Final residual = 0.00182991, No Iterations 13

Time = 59

smoothSolver:  Solving for Ux, Initial residual = 0.016268, Final residual = 0.00116175, No Iterations 6
smoothSolver:  Solving for Uy, Initial residual = 0.00992673, Final residual = 0.00074665, No Iterations 6
GAMG:  Solving for p, Initial residual = 0.00908181, Final residual = 0.000889693, No Iterations 2
time step continuity errors : sum local = 0.00221606, global = 0.000164818, cumulative = 0.0098698
smoothSolver:  Solving for omega, Initial residual = 0.00124205, Final residual = 9.65553e-05, No Iterations 5
smoothSolver:  Solving for k, Initial residual = 0.0160778, Final residual = 0.00125805, No Iterations 6
ExecutionTime = 0.79 s  ClockTime = 1 s

scalarTransport execute: age
smoothSolver:  Solving for age, Initial residual = 0.0200511, Final residual = 0.00186417, No Iterations 13

Time = 60

smoothSolver:  Solving for Ux, Initial residual = 0.0161777, Final residual = 0.00115419, No Iterations 6
smoothSolver:  Solving for Uy, Initial residual = 0.00988915, Final residual = 0.000745477, No Iterations 6
GAMG:  Solving for p, Initial residual = 0.00913259, Final residual = 0.00088449, No Iterations 2
time step continuity errors : sum local = 0.00219349, global = 0.000162711, cumulative = 0.0100325
smoothSolver:  Solving for omega, Initial residual = 0.00121387, Final residual = 9.37478e-05, No Iterations 5
smoothSolver:  Solving for k, Initial residual = 0.0157621, Final residual = 0.00123078, No Iterations 6
ExecutionTime = 0.81 s  ClockTime = 1 s

scalarTransport execute: age
smoothSolver:  Solving for age, Initial residual = 0.0201854, Final residual = 0.00188386, No Iterations 13

Time = 61

smoothSolver:  Solving for Ux, Initial residual = 0.016106, Final residual = 0.00114805, No Iterations 6
smoothSolver:  Solving for Uy, Initial residual = 0.00982074, Final residual = 0.000742197, No Iterations 6
GAMG:  Solving for p, Initial residual = 0.00916102, Final residual = 0.000875438, No Iterations 2
time step continuity errors : sum local = 0.00216083, global = 0.00016118, cumulative = 0.0101937
smoothSolver:  Solving for omega, Initial residual = 0.00118702, Final residual = 9.11686e-05, No Iterations 5
smoothSolver:  Solving for k, Initial residual = 0.0154527, Final residual = 0.00120425, No Iterations 6
ExecutionTime = 0.82 s  ClockTime = 1 s

scalarTransport execute: age
smoothSolver:  Solving for age, Initial residual = 0.0203235, Final residual = 0.00191251, No Iterations 13

Time = 62

smoothSolver:  Solving for Ux, Initial residual = 0.0160406, Final residual = 0.00114224, No Iterations 6
smoothSolver:  Solving for Uy, Initial residual = 0.00973114, Final residual = 0.000736957, No Iterations 6
GAMG:  Solving for p, Initial residual = 0.00918747, Final residual = 0.000862049, No Iterations 2
time step continuity errors : sum local = 0.00211721, global = 0.000159847, cumulative = 0.0103535
smoothSolver:  Solving for omega, Initial residual = 0.00116358, Final residual = 8.8799e-05, No Iterations 5
smoothSolver:  Solving for k, Initial residual = 0.0151502, Final residual = 0.00117834, No Iterations 6
ExecutionTime = 0.83 s  ClockTime = 1 s

scalarTransport execute: age
smoothSolver:  Solving for age, Initial residual = 0.020264, Final residual = 0.00195088, No Iterations 13

Time = 63

smoothSolver:  Solving for Ux, Initial residual = 0.0159653, Final residual = 0.0011362, No Iterations 6
smoothSolver:  Solving for Uy, Initial residual = 0.00962476, Final residual = 0.000730081, No Iterations 6
GAMG:  Solving for p, Initial residual = 0.00925547, Final residual = 0.000845281, No Iterations 2
time step continuity errors : sum local = 0.00206557, global = 0.000158204, cumulative = 0.0105117
smoothSolver:  Solving for omega, Initial residual = 0.00114233, Final residual = 8.66083e-05, No Iterations 5
smoothSolver:  Solving for k, Initial residual = 0.014852, Final residual = 0.00115291, No Iterations 6
ExecutionTime = 0.85 s  ClockTime = 1 s

scalarTransport execute: age
smoothSolver:  Solving for age, Initial residual = 0.0202094, Final residual = 0.00198658, No Iterations 13

Time = 64

smoothSolver:  Solving for Ux, Initial residual = 0.0158779, Final residual = 0.00112916, No Iterations 6
smoothSolver:  Solving for Uy, Initial residual = 0.00950079, Final residual = 0.000721905, No Iterations 6
GAMG:  Solving for p, Initial residual = 0.00930967, Final residual = 0.000826885, No Iterations 2
time step continuity errors : sum local = 0.00201006, global = 0.000155017, cumulative = 0.0106668
smoothSolver:  Solving for omega, Initial residual = 0.00112186, Final residual = 8.4522e-05, No Iterations 5
smoothSolver:  Solving for k, Initial residual = 0.0145594, Final residual = 0.00112794, No Iterations 6
ExecutionTime = 0.86 s  ClockTime = 1 s

scalarTransport execute: age
smoothSolver:  Solving for age, Initial residual = 0.020085, Final residual = 0.00200408, No Iterations 13

Time = 65

smoothSolver:  Solving for Ux, Initial residual = 0.0157758, Final residual = 0.00112111, No Iterations 6
smoothSolver:  Solving for Uy, Initial residual = 0.00935881, Final residual = 0.000712494, No Iterations 6
GAMG:  Solving for p, Initial residual = 0.00932056, Final residual = 0.000805359, No Iterations 2
time step continuity errors : sum local = 0.00194796, global = 0.000150817, cumulative = 0.0108176
smoothSolver:  Solving for omega, Initial residual = 0.00110089, Final residual = 8.25373e-05, No Iterations 5
smoothSolver:  Solving for k, Initial residual = 0.0142707, Final residual = 0.00110331, No Iterations 6
ExecutionTime = 0.87 s  ClockTime = 1 s

scalarTransport execute: age
smoothSolver:  Solving for age, Initial residual = 0.0197465, Final residual = 0.00177541, No Iterations 14

Time = 66

smoothSolver:  Solving for Ux, Initial residual = 0.0156528, Final residual = 0.0011112, No Iterations 6
smoothSolver:  Solving for Uy, Initial residual = 0.00920845, Final residual = 0.000701961, No Iterations 6
GAMG:  Solving for p, Initial residual = 0.00929767, Final residual = 0.000786227, No Iterations 2
time step continuity errors : sum local = 0.00189264, global = 0.00014545, cumulative = 0.010963
smoothSolver:  Solving for omega, Initial residual = 0.00107548, Final residual = 8.05181e-05, No Iterations 5
smoothSolver:  Solving for k, Initial residual = 0.0139854, Final residual = 0.00107908, No Iterations 6
ExecutionTime = 0.89 s  ClockTime = 1 s

scalarTransport execute: age
smoothSolver:  Solving for age, Initial residual = 0.0193963, Final residual = 0.00178443, No Iterations 14

Time = 67

smoothSolver:  Solving for Ux, Initial residual = 0.0154972, Final residual = 0.00109905, No Iterations 6
smoothSolver:  Solving for Uy, Initial residual = 0.00904862, Final residual = 0.000690319, No Iterations 6
GAMG:  Solving for p, Initial residual = 0.00928629, Final residual = 0.000771372, No Iterations 2
time step continuity errors : sum local = 0.0018483, global = 0.000138954, cumulative = 0.011102
smoothSolver:  Solving for omega, Initial residual = 0.00105258, Final residual = 7.85973e-05, No Iterations 5
smoothSolver:  Solving for k, Initial residual = 0.0137042, Final residual = 0.00105523, No Iterations 6
ExecutionTime = 0.9 s  ClockTime = 1 s

scalarTransport execute: age
smoothSolver:  Solving for age, Initial residual = 0.0190294, Final residual = 0.00178584, No Iterations 14

Time = 68

smoothSolver:  Solving for Ux, Initial residual = 0.0153096, Final residual = 0.00108476, No Iterations 6
smoothSolver:  Solving for Uy, Initial residual = 0.00887303, Final residual = 0.000677604, No Iterations 6
GAMG:  Solving for p, Initial residual = 0.00930466, Final residual = 0.000757848, No Iterations 2
time step continuity errors : sum local = 0.00180779, global = 0.000132011, cumulative = 0.011234
smoothSolver:  Solving for omega, Initial residual = 0.0010301, Final residual = 7.68565e-05, No Iterations 5
smoothSolver:  Solving for k, Initial residual = 0.0134269, Final residual = 0.00103163, No Iterations 6
ExecutionTime = 0.93 s  ClockTime = 1 s

scalarTransport execute: age
smoothSolver:  Solving for age, Initial residual = 0.0186631, Final residual = 0.0017804, No Iterations 14

Time = 69

smoothSolver:  Solving for Ux, Initial residual = 0.0150883, Final residual = 0.00106844, No Iterations 6
smoothSolver:  Solving for Uy, Initial residual = 0.00869361, Final residual = 0.000663832, No Iterations 6
GAMG:  Solving for p, Initial residual = 0.0093073, Final residual = 0.000745832, No Iterations 2
time step continuity errors : sum local = 0.00177118, global = 0.000125024, cumulative = 0.011359
smoothSolver:  Solving for omega, Initial residual = 0.00100888, Final residual = 7.5162e-05, No Iterations 5
smoothSolver:  Solving for k, Initial residual = 0.0131535, Final residual = 0.00100829, No Iterations 6
ExecutionTime = 0.94 s  ClockTime = 1 s

scalarTransport execute: age
smoothSolver:  Solving for age, Initial residual = 0.0181984, Final residual = 0.00176361, No Iterations 14

Time = 70

smoothSolver:  Solving for Ux, Initial residual = 0.0148354, Final residual = 0.0010502, No Iterations 6
smoothSolver:  Solving for Uy, Initial residual = 0.00850554, Final residual = 0.00064923, No Iterations 6
GAMG:  Solving for p, Initial residual = 0.009263, Final residual = 0.000734798, No Iterations 2
time step continuity errors : sum local = 0.00173712, global = 0.000118775, cumulative = 0.0114778
smoothSolver:  Solving for omega, Initial residual = 0.000987883, Final residual = 7.35483e-05, No Iterations 5
smoothSolver:  Solving for k, Initial residual = 0.0128838, Final residual = 0.000985106, No Iterations 6
ExecutionTime = 0.95 s  ClockTime = 1 s

scalarTransport execute: age
smoothSolver:  Solving for age, Initial residual = 0.0176519, Final residual = 0.00173209, No Iterations 14

Time = 71

smoothSolver:  Solving for Ux, Initial residual = 0.014554, Final residual = 0.00103013, No Iterations 6
smoothSolver:  Solving for Uy, Initial residual = 0.00831329, Final residual = 0.000633818, No Iterations 6
GAMG:  Solving for p, Initial residual = 0.00916681, Final residual = 0.000723198, No Iterations 2
time step continuity errors : sum local = 0.00170232, global = 0.000113624, cumulative = 0.0115914
smoothSolver:  Solving for omega, Initial residual = 0.000969111, Final residual = 7.19017e-05, No Iterations 5
smoothSolver:  Solving for k, Initial residual = 0.0126146, Final residual = 0.000961931, No Iterations 6
ExecutionTime = 0.97 s  ClockTime = 1 s

scalarTransport execute: age
smoothSolver:  Solving for age, Initial residual = 0.0169533, Final residual = 0.0016751, No Iterations 14

Time = 72

smoothSolver:  Solving for Ux, Initial residual = 0.0142483, Final residual = 0.0010086, No Iterations 6
smoothSolver:  Solving for Uy, Initial residual = 0.00811022, Final residual = 0.000617669, No Iterations 6
GAMG:  Solving for p, Initial residual = 0.00902458, Final residual = 0.000711314, No Iterations 2
time step continuity errors : sum local = 0.00166707, global = 0.000109972, cumulative = 0.0117014
smoothSolver:  Solving for omega, Initial residual = 0.000948091, Final residual = 7.02762e-05, No Iterations 5
smoothSolver:  Solving for k, Initial residual = 0.0123457, Final residual = 0.000938736, No Iterations 6
ExecutionTime = 0.98 s  ClockTime = 1 s

scalarTransport execute: age
smoothSolver:  Solving for age, Initial residual = 0.0162103, Final residual = 0.0016112, No Iterations 14

Time = 73

smoothSolver:  Solving for Ux, Initial residual = 0.0139189, Final residual = 0.000985263, No Iterations 6
smoothSolver:  Solving for Uy, Initial residual = 0.00790652, Final residual = 0.000600898, No Iterations 6
GAMG:  Solving for p, Initial residual = 0.00885089, Final residual = 0.000698225, No Iterations 2
time step continuity errors : sum local = 0.00162934, global = 0.000108084, cumulative = 0.0118095
smoothSolver:  Solving for omega, Initial residual = 0.000928022, Final residual = 6.86389e-05, No Iterations 5
smoothSolver:  Solving for k, Initial residual = 0.0120787, Final residual = 0.000915597, No Iterations 6
ExecutionTime = 0.99 s  ClockTime = 1 s

scalarTransport execute: age
smoothSolver:  Solving for age, Initial residual = 0.0154984, Final residual = 0.00154374, No Iterations 14

Time = 74

smoothSolver:  Solving for Ux, Initial residual = 0.0135649, Final residual = 0.000959976, No Iterations 6
smoothSolver:  Solving for Uy, Initial residual = 0.00769643, Final residual = 0.000583629, No Iterations 6
GAMG:  Solving for p, Initial residual = 0.00865597, Final residual = 0.000683249, No Iterations 2
time step continuity errors : sum local = 0.00158743, global = 0.000108116, cumulative = 0.0119176
smoothSolver:  Solving for omega, Initial residual = 0.00090925, Final residual = 6.69684e-05, No Iterations 5
smoothSolver:  Solving for k, Initial residual = 0.0118134, Final residual = 0.0008925, No Iterations 6
ExecutionTime = 1.01 s  ClockTime = 1 s

scalarTransport execute: age
smoothSolver:  Solving for age, Initial residual = 0.0148165, Final residual = 0.00145685, No Iterations 14

Time = 75

smoothSolver:  Solving for Ux, Initial residual = 0.0131877, Final residual = 0.000933004, No Iterations 6
smoothSolver:  Solving for Uy, Initial residual = 0.00748798, Final residual = 0.000565928, No Iterations 6
GAMG:  Solving for p, Initial residual = 0.00845481, Final residual = 0.000667835, No Iterations 2
time step continuity errors : sum local = 0.00154412, global = 0.000109952, cumulative = 0.0120275
smoothSolver:  Solving for omega, Initial residual = 0.00090195, Final residual = 6.51603e-05, No Iterations 5
smoothSolver:  Solving for k, Initial residual = 0.0115525, Final residual = 0.000869572, No Iterations 6
ExecutionTime = 1.02 s  ClockTime = 1 s

scalarTransport execute: age
smoothSolver:  Solving for age, Initial residual = 0.0141624, Final residual = 0.00136172, No Iterations 14

Time = 76

smoothSolver:  Solving for Ux, Initial residual = 0.012791, Final residual = 0.000905199, No Iterations 6
smoothSolver:  Solving for Uy, Initial residual = 0.00728311, Final residual = 0.00054785, No Iterations 6
GAMG:  Solving for p, Initial residual = 0.00825407, Final residual = 0.000652925, No Iterations 2
time step continuity errors : sum local = 0.00150234, global = 0.000113065, cumulative = 0.0121406
smoothSolver:  Solving for omega, Initial residual = 0.000881681, Final residual = 6.33363e-05, No Iterations 5
smoothSolver:  Solving for k, Initial residual = 0.0112904, Final residual = 0.000846622, No Iterations 6
ExecutionTime = 1.03 s  ClockTime = 1 s

scalarTransport execute: age
smoothSolver:  Solving for age, Initial residual = 0.0135306, Final residual = 0.00127555, No Iterations 14

Time = 77

smoothSolver:  Solving for Ux, Initial residual = 0.0123938, Final residual = 0.000876876, No Iterations 6
smoothSolver:  Solving for Uy, Initial residual = 0.00708157, Final residual = 0.000529419, No Iterations 6
GAMG:  Solving for p, Initial residual = 0.00805512, Final residual = 0.000639832, No Iterations 2
time step continuity errors : sum local = 0.00146496, global = 0.000117325, cumulative = 0.0122579
smoothSolver:  Solving for omega, Initial residual = 0.000862496, Final residual = 6.15074e-05, No Iterations 5
smoothSolver:  Solving for k, Initial residual = 0.0110289, Final residual = 0.000823664, No Iterations 6
ExecutionTime = 1.04 s  ClockTime = 1 s

scalarTransport execute: age
smoothSolver:  Solving for age, Initial residual = 0.0129922, Final residual = 0.00119612, No Iterations 14

Time = 78

smoothSolver:  Solving for Ux, Initial residual = 0.011999, Final residual = 0.000848119, No Iterations 6
smoothSolver:  Solving for Uy, Initial residual = 0.00688196, Final residual = 0.00051071, No Iterations 6
GAMG:  Solving for p, Initial residual = 0.00789252, Final residual = 0.000630007, No Iterations 2
time step continuity errors : sum local = 0.00143476, global = 0.000122634, cumulative = 0.0123806
smoothSolver:  Solving for omega, Initial residual = 0.000841115, Final residual = 5.95975e-05, No Iterations 5
smoothSolver:  Solving for k, Initial residual = 0.0107666, Final residual = 0.000800701, No Iterations 6
ExecutionTime = 1.06 s  ClockTime = 1 s

scalarTransport execute: age
smoothSolver:  Solving for age, Initial residual = 0.01242, Final residual = 0.00111544, No Iterations 14

Time = 79

smoothSolver:  Solving for Ux, Initial residual = 0.0116048, Final residual = 0.000819172, No Iterations 6
smoothSolver:  Solving for Uy, Initial residual = 0.00667873, Final residual = 0.000491635, No Iterations 6
GAMG:  Solving for p, Initial residual = 0.00780274, Final residual = 0.000620887, No Iterations 2
time step continuity errors : sum local = 0.00140704, global = 0.0001285, cumulative = 0.0125091
smoothSolver:  Solving for omega, Initial residual = 0.000819535, Final residual = 5.76323e-05, No Iterations 5
smoothSolver:  Solving for k, Initial residual = 0.0105047, Final residual = 0.00077769, No Iterations 6
ExecutionTime = 1.07 s  ClockTime = 1 s

scalarTransport execute: age
smoothSolver:  Solving for age, Initial residual = 0.0118603, Final residual = 0.00104475, No Iterations 14

Time = 80

smoothSolver:  Solving for Ux, Initial residual = 0.0112089, Final residual = 0.000789976, No Iterations 6
smoothSolver:  Solving for Uy, Initial residual = 0.00646834, Final residual = 0.000472108, No Iterations 6
GAMG:  Solving for p, Initial residual = 0.00777564, Final residual = 0.000613331, No Iterations 2
time step continuity errors : sum local = 0.00138333, global = 0.000134432, cumulative = 0.0126435
smoothSolver:  Solving for omega, Initial residual = 0.000801032, Final residual = 5.57487e-05, No Iterations 5
smoothSolver:  Solving for k, Initial residual = 0.0102423, Final residual = 0.000754463, No Iterations 6
ExecutionTime = 1.08 s  ClockTime = 1 s

scalarTransport execute: age
smoothSolver:  Solving for age, Initial residual = 0.0113266, Final residual = 0.00113184, No Iterations 13

Time = 81

smoothSolver:  Solving for Ux, Initial residual = 0.0108081, Final residual = 0.000760322, No Iterations 6
smoothSolver:  Solving for Uy, Initial residual = 0.00625355, Final residual = 0.00045213, No Iterations 6
GAMG:  Solving for p, Initial residual = 0.007812, Final residual = 0.00060712, No Iterations 2
time step continuity errors : sum local = 0.00136311, global = 0.000140183, cumulative = 0.0127837
smoothSolver:  Solving for omega, Initial residual = 0.000782229, Final residual = 5.37143e-05, No Iterations 5
smoothSolver:  Solving for k, Initial residual = 0.00997955, Final residual = 0.000731175, No Iterations 6
ExecutionTime = 1.1 s  ClockTime = 1 s

scalarTransport execute: age
smoothSolver:  Solving for age, Initial residual = 0.010846, Final residual = 0.000949235, No Iterations 14

Time = 82

smoothSolver:  Solving for Ux, Initial residual = 0.0104118, Final residual = 0.000730711, No Iterations 6
smoothSolver:  Solving for Uy, Initial residual = 0.00603358, Final residual = 0.000431969, No Iterations 6
GAMG:  Solving for p, Initial residual = 0.00786911, Final residual = 0.000600787, No Iterations 2
time step continuity errors : sum local = 0.00134331, global = 0.000145172, cumulative = 0.0129288
smoothSolver:  Solving for omega, Initial residual = 0.000767722, Final residual = 5.19882e-05, No Iterations 5
smoothSolver:  Solving for k, Initial residual = 0.00971505, Final residual = 0.000707637, No Iterations 6
ExecutionTime = 1.1 s  ClockTime = 1 s

scalarTransport execute: age
smoothSolver:  Solving for age, Initial residual = 0.0103435, Final residual = 0.00092487, No Iterations 14

Time = 83

smoothSolver:  Solving for Ux, Initial residual = 0.0100211, Final residual = 0.000700809, No Iterations 6
smoothSolver:  Solving for Uy, Initial residual = 0.00581299, Final residual = 0.000411649, No Iterations 6
GAMG:  Solving for p, Initial residual = 0.00790128, Final residual = 0.000590401, No Iterations 2
time step continuity errors : sum local = 0.00131323, global = 0.000145842, cumulative = 0.0130747
smoothSolver:  Solving for omega, Initial residual = 0.000756148, Final residual = 5.03857e-05, No Iterations 5
smoothSolver:  Solving for k, Initial residual = 0.00945003, Final residual = 0.000683875, No Iterations 6
ExecutionTime = 1.11 s  ClockTime = 1 s

scalarTransport execute: age
smoothSolver:  Solving for age, Initial residual = 0.00986785, Final residual = 0.000905608, No Iterations 14

Time = 84

smoothSolver:  Solving for Ux, Initial residual = 0.00963326, Final residual = 0.000671165, No Iterations 6
smoothSolver:  Solving for Uy, Initial residual = 0.00559612, Final residual = 0.000391443, No Iterations 6
GAMG:  Solving for p, Initial residual = 0.00788107, Final residual = 0.000586484, No Iterations 2
time step continuity errors : sum local = 0.00129829, global = 0.000147876, cumulative = 0.0132226
smoothSolver:  Solving for omega, Initial residual = 0.00074632, Final residual = 4.87925e-05, No Iterations 5
smoothSolver:  Solving for k, Initial residual = 0.00918355, Final residual = 0.000659838, No Iterations 6
ExecutionTime = 1.13 s  ClockTime = 1 s

scalarTransport execute: age
smoothSolver:  Solving for age, Initial residual = 0.00946111, Final residual = 0.000888301, No Iterations 14

Time = 85

smoothSolver:  Solving for Ux, Initial residual = 0.00923577, Final residual = 0.000640991, No Iterations 6
smoothSolver:  Solving for Uy, Initial residual = 0.00538898, Final residual = 0.000371941, No Iterations 6
GAMG:  Solving for p, Initial residual = 0.00778723, Final residual = 0.000579593, No Iterations 2
time step continuity errors : sum local = 0.00127773, global = 0.000149474, cumulative = 0.013372
smoothSolver:  Solving for omega, Initial residual = 0.000738175, Final residual = 4.72406e-05, No Iterations 5
smoothSolver:  Solving for k, Initial residual = 0.00891467, Final residual = 0.000635677, No Iterations 6
ExecutionTime = 1.14 s  ClockTime = 1 s

scalarTransport execute: age
smoothSolver:  Solving for age, Initial residual = 0.00906619, Final residual = 0.000869363, No Iterations 14

Time = 86

smoothSolver:  Solving for Ux, Initial residual = 0.00883927, Final residual = 0.000610983, No Iterations 6
smoothSolver:  Solving for Uy, Initial residual = 0.00519215, Final residual = 0.00035335, No Iterations 6
GAMG:  Solving for p, Initial residual = 0.00766059, Final residual = 0.000570032, No Iterations 2
time step continuity errors : sum local = 0.00125183, global = 0.000151667, cumulative = 0.0135237
smoothSolver:  Solving for omega, Initial residual = 0.000730983, Final residual = 4.5753e-05, No Iterations 5
smoothSolver:  Solving for k, Initial residual = 0.00864374, Final residual = 0.000611396, No Iterations 6
ExecutionTime = 1.15 s  ClockTime = 1 s

scalarTransport execute: age
smoothSolver:  Solving for age, Initial residual = 0.00870252, Final residual = 0.000850841, No Iterations 14

Time = 87

smoothSolver:  Solving for Ux, Initial residual = 0.00843577, Final residual = 0.000580811, No Iterations 6
smoothSolver:  Solving for Uy, Initial residual = 0.00501712, Final residual = 0.00033628, No Iterations 6
GAMG:  Solving for p, Initial residual = 0.00750602, Final residual = 0.000557739, No Iterations 2
time step continuity errors : sum local = 0.00122089, global = 0.000154045, cumulative = 0.0136778
smoothSolver:  Solving for omega, Initial residual = 0.000722355, Final residual = 7.15478e-05, No Iterations 4
smoothSolver:  Solving for k, Initial residual = 0.00836978, Final residual = 0.000587111, No Iterations 6
ExecutionTime = 1.17 s  ClockTime = 1 s

scalarTransport execute: age
smoothSolver:  Solving for age, Initial residual = 0.00834505, Final residual = 0.000831315, No Iterations 14

Time = 88

smoothSolver:  Solving for Ux, Initial residual = 0.00803321, Final residual = 0.000550773, No Iterations 6
smoothSolver:  Solving for Uy, Initial residual = 0.00486082, Final residual = 0.000321293, No Iterations 6
GAMG:  Solving for p, Initial residual = 0.00734265, Final residual = 0.000544288, No Iterations 2
time step continuity errors : sum local = 0.00118776, global = 0.000157355, cumulative = 0.0138351
smoothSolver:  Solving for omega, Initial residual = 0.000720911, Final residual = 6.98653e-05, No Iterations 4
smoothSolver:  Solving for k, Initial residual = 0.00809573, Final residual = 0.000562903, No Iterations 6
ExecutionTime = 1.18 s  ClockTime = 1 s

scalarTransport execute: age
smoothSolver:  Solving for age, Initial residual = 0.00799824, Final residual = 0.000717452, No Iterations 15

Time = 89

smoothSolver:  Solving for Ux, Initial residual = 0.00762857, Final residual = 0.000521101, No Iterations 6
smoothSolver:  Solving for Uy, Initial residual = 0.00473018, Final residual = 0.000309113, No Iterations 6
GAMG:  Solving for p, Initial residual = 0.00721865, Final residual = 0.00052767, No Iterations 2
time step continuity errors : sum local = 0.00114942, global = 0.000159016, cumulative = 0.0139941
smoothSolver:  Solving for omega, Initial residual = 0.0007183, Final residual = 6.80069e-05, No Iterations 4
smoothSolver:  Solving for k, Initial residual = 0.00782368, Final residual = 0.000538851, No Iterations 6
ExecutionTime = 1.19 s  ClockTime = 1 s

scalarTransport execute: age
smoothSolver:  Solving for age, Initial residual = 0.00769256, Final residual = 0.000705238, No Iterations 15

Time = 90

smoothSolver:  Solving for Ux, Initial residual = 0.00723184, Final residual = 0.000491459, No Iterations 6
smoothSolver:  Solving for Uy, Initial residual = 0.00463012, Final residual = 0.000301614, No Iterations 6
GAMG:  Solving for p, Initial residual = 0.00703326, Final residual = 0.000511698, No Iterations 2
time step continuity errors : sum local = 0.00111117, global = 0.000158782, cumulative = 0.0141529
smoothSolver:  Solving for omega, Initial residual = 0.000713363, Final residual = 6.59994e-05, No Iterations 4
smoothSolver:  Solving for k, Initial residual = 0.00755629, Final residual = 0.000515033, No Iterations 6
ExecutionTime = 1.21 s  ClockTime = 1 s

scalarTransport execute: age
smoothSolver:  Solving for age, Initial residual = 0.00741258, Final residual = 0.000691366, No Iterations 15

Time = 91

smoothSolver:  Solving for Ux, Initial residual = 0.00683744, Final residual = 0.000462605, No Iterations 6
smoothSolver:  Solving for Uy, Initial residual = 0.00456789, Final residual = 0.000296005, No Iterations 6
GAMG:  Solving for p, Initial residual = 0.0069387, Final residual = 0.000501695, No Iterations 2
time step continuity errors : sum local = 0.00108416, global = 0.000159351, cumulative = 0.0143123
smoothSolver:  Solving for omega, Initial residual = 0.000706236, Final residual = 6.37395e-05, No Iterations 4
smoothSolver:  Solving for k, Initial residual = 0.00729054, Final residual = 0.000491459, No Iterations 6
ExecutionTime = 1.22 s  ClockTime = 1 s

scalarTransport execute: age
smoothSolver:  Solving for age, Initial residual = 0.00716462, Final residual = 0.000675953, No Iterations 15

Time = 92

smoothSolver:  Solving for Ux, Initial residual = 0.00645584, Final residual = 0.000434015, No Iterations 6
smoothSolver:  Solving for Uy, Initial residual = 0.00450153, Final residual = 0.000447933, No Iterations 5
GAMG:  Solving for p, Initial residual = 0.00682304, Final residual = 0.000486582, No Iterations 2
time step continuity errors : sum local = 0.00104624, global = 0.000158263, cumulative = 0.0144705
smoothSolver:  Solving for omega, Initial residual = 0.000698569, Final residual = 6.1292e-05, No Iterations 4
smoothSolver:  Solving for k, Initial residual = 0.00702457, Final residual = 0.000468192, No Iterations 6
ExecutionTime = 1.23 s  ClockTime = 1 s

scalarTransport execute: age
smoothSolver:  Solving for age, Initial residual = 0.00691572, Final residual = 0.000659335, No Iterations 15

Time = 93

smoothSolver:  Solving for Ux, Initial residual = 0.00605058, Final residual = 0.00040401, No Iterations 6
smoothSolver:  Solving for Uy, Initial residual = 0.00448141, Final residual = 0.000444842, No Iterations 5
GAMG:  Solving for p, Initial residual = 0.00665222, Final residual = 0.000476897, No Iterations 2
time step continuity errors : sum local = 0.00102089, global = 0.000158592, cumulative = 0.0146291
smoothSolver:  Solving for omega, Initial residual = 0.000683475, Final residual = 5.88055e-05, No Iterations 4
smoothSolver:  Solving for k, Initial residual = 0.00675832, Final residual = 0.000445233, No Iterations 6
ExecutionTime = 1.25 s  ClockTime = 1 s

scalarTransport execute: age
smoothSolver:  Solving for age, Initial residual = 0.0066355, Final residual = 0.000642875, No Iterations 15

Time = 94

smoothSolver:  Solving for Ux, Initial residual = 0.00568212, Final residual = 0.000376458, No Iterations 6
smoothSolver:  Solving for Uy, Initial residual = 0.00440801, Final residual = 0.000434886, No Iterations 5
GAMG:  Solving for p, Initial residual = 0.00653258, Final residual = 0.000468236, No Iterations 2
time step continuity errors : sum local = 0.000998624, global = 0.00015782, cumulative = 0.0147869
smoothSolver:  Solving for omega, Initial residual = 0.000664477, Final residual = 5.62999e-05, No Iterations 4
smoothSolver:  Solving for k, Initial residual = 0.00649083, Final residual = 0.000422604, No Iterations 6
ExecutionTime = 1.26 s  ClockTime = 1 s

scalarTransport execute: age
smoothSolver:  Solving for age, Initial residual = 0.00638391, Final residual = 0.000628404, No Iterations 15

Time = 95

smoothSolver:  Solving for Ux, Initial residual = 0.00532911, Final residual = 0.000349968, No Iterations 6
smoothSolver:  Solving for Uy, Initial residual = 0.00431312, Final residual = 0.000422349, No Iterations 5
GAMG:  Solving for p, Initial residual = 0.00642298, Final residual = 0.000461001, No Iterations 2
time step continuity errors : sum local = 0.000979495, global = 0.000156378, cumulative = 0.0149433
smoothSolver:  Solving for omega, Initial residual = 0.000647369, Final residual = 5.37767e-05, No Iterations 4
smoothSolver:  Solving for k, Initial residual = 0.00622148, Final residual = 0.000400333, No Iterations 6
ExecutionTime = 1.27 s  ClockTime = 1 s

scalarTransport execute: age
smoothSolver:  Solving for age, Initial residual = 0.00616145, Final residual = 0.000613108, No Iterations 15

Time = 96

smoothSolver:  Solving for Ux, Initial residual = 0.00499427, Final residual = 0.000324526, No Iterations 6
[...]

Time = 546

smoothSolver:  Solving for Ux, Initial residual = 5.11609e-07, Final residual = 4.45867e-08, No Iterations 5
smoothSolver:  Solving for Uy, Initial residual = 3.23495e-07, Final residual = 2.68463e-08, No Iterations 5
GAMG:  Solving for p, Initial residual = 1.60458e-06, Final residual = 1.14317e-07, No Iterations 2
time step continuity errors : sum local = 2.30896e-07, global = 2.46271e-08, cumulative = 0.0207046
smoothSolver:  Solving for omega, Initial residual = 6.50403e-08, Final residual = 6.68389e-09, No Iterations 4
smoothSolver:  Solving for k, Initial residual = 2.17808e-07, Final residual = 1.87005e-08, No Iterations 5
ExecutionTime = 7.01 s  ClockTime = 7 s

scalarTransport execute: age
smoothSolver:  Solving for age, Initial residual = 0.000310578, Final residual = 2.89373e-05, No Iterations 15

Time = 547

smoothSolver:  Solving for Ux, Initial residual = 5.00875e-07, Final residual = 4.36501e-08, No Iterations 5
smoothSolver:  Solving for Uy, Initial residual = 3.16725e-07, Final residual = 2.62832e-08, No Iterations 5
GAMG:  Solving for p, Initial residual = 1.57119e-06, Final residual = 1.11933e-07, No Iterations 2
time step continuity errors : sum local = 2.2608e-07, global = 2.41209e-08, cumulative = 0.0207046
smoothSolver:  Solving for omega, Initial residual = 6.37001e-08, Final residual = 6.54783e-09, No Iterations 4
smoothSolver:  Solving for k, Initial residual = 2.13224e-07, Final residual = 1.83091e-08, No Iterations 5
ExecutionTime = 7.03 s  ClockTime = 7 s

scalarTransport execute: age
smoothSolver:  Solving for age, Initial residual = 0.000309882, Final residual = 2.88732e-05, No Iterations 15

Time = 548

smoothSolver:  Solving for Ux, Initial residual = 4.90367e-07, Final residual = 4.27331e-08, No Iterations 5
smoothSolver:  Solving for Uy, Initial residual = 3.10104e-07, Final residual = 2.57324e-08, No Iterations 5
GAMG:  Solving for p, Initial residual = 1.53852e-06, Final residual = 1.09599e-07, No Iterations 2
time step continuity errors : sum local = 2.21367e-07, global = 2.36249e-08, cumulative = 0.0207046
smoothSolver:  Solving for omega, Initial residual = 6.23856e-08, Final residual = 6.41416e-09, No Iterations 4
smoothSolver:  Solving for k, Initial residual = 2.08745e-07, Final residual = 1.79267e-08, No Iterations 5
ExecutionTime = 7.04 s  ClockTime = 7 s

scalarTransport execute: age
smoothSolver:  Solving for age, Initial residual = 0.000309189, Final residual = 2.88093e-05, No Iterations 15

Time = 549

smoothSolver:  Solving for Ux, Initial residual = 4.8008e-07, Final residual = 4.18355e-08, No Iterations 5
smoothSolver:  Solving for Uy, Initial residual = 3.03627e-07, Final residual = 2.51936e-08, No Iterations 5
GAMG:  Solving for p, Initial residual = 1.50655e-06, Final residual = 1.07315e-07, No Iterations 2
time step continuity errors : sum local = 2.16753e-07, global = 2.3139e-08, cumulative = 0.0207047
smoothSolver:  Solving for omega, Initial residual = 6.10967e-08, Final residual = 6.28289e-09, No Iterations 4
smoothSolver:  Solving for k, Initial residual = 2.04368e-07, Final residual = 1.7553e-08, No Iterations 5
ExecutionTime = 7.05 s  ClockTime = 7 s

scalarTransport execute: age
smoothSolver:  Solving for age, Initial residual = 0.0003085, Final residual = 2.87458e-05, No Iterations 15

Time = 550

smoothSolver:  Solving for Ux, Initial residual = 4.70012e-07, Final residual = 4.09568e-08, No Iterations 5
smoothSolver:  Solving for Uy, Initial residual = 2.97293e-07, Final residual = 2.46667e-08, No Iterations 5
GAMG:  Solving for p, Initial residual = 1.47526e-06, Final residual = 1.05079e-07, No Iterations 2
time step continuity errors : sum local = 2.12237e-07, global = 2.26629e-08, cumulative = 0.0207047
smoothSolver:  Solving for omega, Initial residual = 5.9833e-08, Final residual = 6.154e-09, No Iterations 4
smoothSolver:  Solving for k, Initial residual = 2.00089e-07, Final residual = 1.71878e-08, No Iterations 5
ExecutionTime = 7.06 s  ClockTime = 7 s

scalarTransport execute: age
smoothSolver:  Solving for age, Initial residual = 0.000307813, Final residual = 2.86825e-05, No Iterations 15

Time = 551

smoothSolver:  Solving for Ux, Initial residual = 4.60158e-07, Final residual = 4.00967e-08, No Iterations 5
smoothSolver:  Solving for Uy, Initial residual = 2.91096e-07, Final residual = 2.41512e-08, No Iterations 5
GAMG:  Solving for p, Initial residual = 1.44465e-06, Final residual = 1.0289e-07, No Iterations 2
time step continuity errors : sum local = 2.07817e-07, global = 2.21965e-08, cumulative = 0.0207047
smoothSolver:  Solving for omega, Initial residual = 5.8594e-08, Final residual = 9.98082e-09, No Iterations 3
smoothSolver:  Solving for k, Initial residual = 1.95906e-07, Final residual = 1.68169e-08, No Iterations 5
ExecutionTime = 7.08 s  ClockTime = 7 s

scalarTransport execute: age
smoothSolver:  Solving for age, Initial residual = 0.000307129, Final residual = 2.86194e-05, No Iterations 15

Time = 552

smoothSolver:  Solving for Ux, Initial residual = 4.50321e-07, Final residual = 3.92317e-08, No Iterations 5
smoothSolver:  Solving for Uy, Initial residual = 2.85024e-07, Final residual = 2.36399e-08, No Iterations 5
GAMG:  Solving for p, Initial residual = 1.41541e-06, Final residual = 1.00724e-07, No Iterations 2
time step continuity errors : sum local = 2.03442e-07, global = 2.17413e-08, cumulative = 0.0207047
smoothSolver:  Solving for omega, Initial residual = 5.82579e-08, Final residual = 9.94305e-09, No Iterations 3
smoothSolver:  Solving for k, Initial residual = 1.91773e-07, Final residual = 1.64493e-08, No Iterations 5
ExecutionTime = 7.09 s  ClockTime = 7 s

scalarTransport execute: age
smoothSolver:  Solving for age, Initial residual = 0.000306449, Final residual = 2.85567e-05, No Iterations 15

Time = 553

smoothSolver:  Solving for Ux, Initial residual = 4.40673e-07, Final residual = 3.83852e-08, No Iterations 5
smoothSolver:  Solving for Uy, Initial residual = 2.79082e-07, Final residual = 2.31426e-08, No Iterations 5
GAMG:  Solving for p, Initial residual = 1.38615e-06, Final residual = 9.85869e-08, No Iterations 2
time step continuity errors : sum local = 1.99125e-07, global = 2.1287e-08, cumulative = 0.0207047
smoothSolver:  Solving for omega, Initial residual = 5.7705e-08, Final residual = 9.86967e-09, No Iterations 3
smoothSolver:  Solving for k, Initial residual = 1.87721e-07, Final residual = 1.60919e-08, No Iterations 5
ExecutionTime = 7.1 s  ClockTime = 7 s

scalarTransport execute: age
smoothSolver:  Solving for age, Initial residual = 0.000305771, Final residual = 2.84942e-05, No Iterations 15

Time = 554

smoothSolver:  Solving for Ux, Initial residual = 4.31261e-07, Final residual = 3.75578e-08, No Iterations 5
smoothSolver:  Solving for Uy, Initial residual = 2.73226e-07, Final residual = 2.2653e-08, No Iterations 5
GAMG:  Solving for p, Initial residual = 1.35709e-06, Final residual = 9.64669e-08, No Iterations 2
time step continuity errors : sum local = 1.94843e-07, global = 2.08297e-08, cumulative = 0.0207048
smoothSolver:  Solving for omega, Initial residual = 5.70052e-08, Final residual = 9.77178e-09, No Iterations 3
smoothSolver:  Solving for k, Initial residual = 1.83748e-07, Final residual = 1.57428e-08, No Iterations 5
ExecutionTime = 7.11 s  ClockTime = 7 s

scalarTransport execute: age
smoothSolver:  Solving for age, Initial residual = 0.000305096, Final residual = 2.8432e-05, No Iterations 15

Time = 555

smoothSolver:  Solving for Ux, Initial residual = 4.22077e-07, Final residual = 3.6751e-08, No Iterations 5
smoothSolver:  Solving for Uy, Initial residual = 2.67461e-07, Final residual = 2.21719e-08, No Iterations 5
GAMG:  Solving for p, Initial residual = 1.32846e-06, Final residual = 9.43918e-08, No Iterations 2
time step continuity errors : sum local = 1.90651e-07, global = 2.03782e-08, cumulative = 0.0207048
smoothSolver:  Solving for omega, Initial residual = 5.62188e-08, Final residual = 9.65751e-09, No Iterations 3
smoothSolver:  Solving for k, Initial residual = 1.79831e-07, Final residual = 1.54003e-08, No Iterations 5
ExecutionTime = 7.13 s  ClockTime = 7 s

scalarTransport execute: age
smoothSolver:  Solving for age, Initial residual = 0.000304421, Final residual = 2.837e-05, No Iterations 15

Time = 556

smoothSolver:  Solving for Ux, Initial residual = 4.13079e-07, Final residual = 3.5964e-08, No Iterations 5
smoothSolver:  Solving for Uy, Initial residual = 2.61803e-07, Final residual = 2.16994e-08, No Iterations 5
GAMG:  Solving for p, Initial residual = 1.3004e-06, Final residual = 9.23738e-08, No Iterations 2
time step continuity errors : sum local = 1.86576e-07, global = 1.99386e-08, cumulative = 0.0207048
smoothSolver:  Solving for omega, Initial residual = 5.53719e-08, Final residual = 9.53133e-09, No Iterations 3
smoothSolver:  Solving for k, Initial residual = 1.75971e-07, Final residual = 1.50645e-08, No Iterations 5
ExecutionTime = 7.14 s  ClockTime = 7 s

scalarTransport execute: age
smoothSolver:  Solving for age, Initial residual = 0.000303749, Final residual = 2.83083e-05, No Iterations 15

Time = 557

smoothSolver:  Solving for Ux, Initial residual = 4.04273e-07, Final residual = 3.51955e-08, No Iterations 5
smoothSolver:  Solving for Uy, Initial residual = 2.56255e-07, Final residual = 2.12363e-08, No Iterations 5
GAMG:  Solving for p, Initial residual = 1.27296e-06, Final residual = 9.04103e-08, No Iterations 2
time step continuity errors : sum local = 1.8261e-07, global = 1.95115e-08, cumulative = 0.0207048
smoothSolver:  Solving for omega, Initial residual = 5.44836e-08, Final residual = 9.39644e-09, No Iterations 3
smoothSolver:  Solving for k, Initial residual = 1.7217e-07, Final residual = 1.47351e-08, No Iterations 5
ExecutionTime = 7.15 s  ClockTime = 7 s

scalarTransport execute: age
smoothSolver:  Solving for age, Initial residual = 0.000303082, Final residual = 2.82469e-05, No Iterations 15

Time = 558

smoothSolver:  Solving for Ux, Initial residual = 3.95663e-07, Final residual = 3.44446e-08, No Iterations 5
smoothSolver:  Solving for Uy, Initial residual = 2.50807e-07, Final residual = 2.07822e-08, No Iterations 5
GAMG:  Solving for p, Initial residual = 1.24611e-06, Final residual = 8.8497e-08, No Iterations 2
time step continuity errors : sum local = 1.78745e-07, global = 1.90972e-08, cumulative = 0.0207048
smoothSolver:  Solving for omega, Initial residual = 5.35683e-08, Final residual = 9.25516e-09, No Iterations 3
smoothSolver:  Solving for k, Initial residual = 1.68432e-07, Final residual = 1.44123e-08, No Iterations 5
ExecutionTime = 7.16 s  ClockTime = 7 s

scalarTransport execute: age
smoothSolver:  Solving for age, Initial residual = 0.000302418, Final residual = 2.81858e-05, No Iterations 15

Time = 559

smoothSolver:  Solving for Ux, Initial residual = 3.87243e-07, Final residual = 3.37104e-08, No Iterations 5
smoothSolver:  Solving for Uy, Initial residual = 2.45459e-07, Final residual = 2.03372e-08, No Iterations 5
GAMG:  Solving for p, Initial residual = 1.21986e-06, Final residual = 8.66307e-08, No Iterations 2
time step continuity errors : sum local = 1.74976e-07, global = 1.86956e-08, cumulative = 0.0207049
smoothSolver:  Solving for omega, Initial residual = 5.26369e-08, Final residual = 9.10931e-09, No Iterations 3
smoothSolver:  Solving for k, Initial residual = 1.64761e-07, Final residual = 1.40963e-08, No Iterations 5
ExecutionTime = 7.18 s  ClockTime = 7 s

scalarTransport execute: age
smoothSolver:  Solving for age, Initial residual = 0.000301757, Final residual = 2.8125e-05, No Iterations 15

Time = 560

smoothSolver:  Solving for Ux, Initial residual = 3.79008e-07, Final residual = 3.29927e-08, No Iterations 5
smoothSolver:  Solving for Uy, Initial residual = 2.40215e-07, Final residual = 1.99011e-08, No Iterations 5
GAMG:  Solving for p, Initial residual = 1.19419e-06, Final residual = 8.48091e-08, No Iterations 2
time step continuity errors : sum local = 1.71297e-07, global = 1.83066e-08, cumulative = 0.0207049
smoothSolver:  Solving for omega, Initial residual = 5.16971e-08, Final residual = 8.96022e-09, No Iterations 3
smoothSolver:  Solving for k, Initial residual = 1.6116e-07, Final residual = 1.37872e-08, No Iterations 5
ExecutionTime = 7.19 s  ClockTime = 7 s

scalarTransport execute: age
smoothSolver:  Solving for age, Initial residual = 0.000301098, Final residual = 2.80644e-05, No Iterations 15

Time = 561

smoothSolver:  Solving for Ux, Initial residual = 3.70955e-07, Final residual = 3.2291e-08, No Iterations 5
smoothSolver:  Solving for Uy, Initial residual = 2.35076e-07, Final residual = 1.94741e-08, No Iterations 5
GAMG:  Solving for p, Initial residual = 1.16908e-06, Final residual = 8.30295e-08, No Iterations 2
time step continuity errors : sum local = 1.67702e-07, global = 1.79291e-08, cumulative = 0.0207049
smoothSolver:  Solving for omega, Initial residual = 5.07544e-08, Final residual = 8.80894e-09, No Iterations 3
smoothSolver:  Solving for k, Initial residual = 1.57633e-07, Final residual = 1.34852e-08, No Iterations 5
ExecutionTime = 7.2 s  ClockTime = 7 s

scalarTransport execute: age
smoothSolver:  Solving for age, Initial residual = 0.000300442, Final residual = 2.80041e-05, No Iterations 15

Time = 562

smoothSolver:  Solving for Ux, Initial residual = 3.63081e-07, Final residual = 3.16051e-08, No Iterations 5
smoothSolver:  Solving for Uy, Initial residual = 2.30049e-07, Final residual = 1.90563e-08, No Iterations 5
GAMG:  Solving for p, Initial residual = 1.1445e-06, Final residual = 8.12892e-08, No Iterations 2
time step continuity errors : sum local = 1.64187e-07, global = 1.7562e-08, cumulative = 0.0207049
smoothSolver:  Solving for omega, Initial residual = 4.98128e-08, Final residual = 8.65628e-09, No Iterations 3
smoothSolver:  Solving for k, Initial residual = 1.54183e-07, Final residual = 1.31904e-08, No Iterations 5
ExecutionTime = 7.21 s  ClockTime = 7 s

scalarTransport execute: age
smoothSolver:  Solving for age, Initial residual = 0.000299789, Final residual = 2.79441e-05, No Iterations 15

Time = 563

smoothSolver:  Solving for Ux, Initial residual = 3.55382e-07, Final residual = 3.09345e-08, No Iterations 5
smoothSolver:  Solving for Uy, Initial residual = 2.25136e-07, Final residual = 1.86478e-08, No Iterations 5
GAMG:  Solving for p, Initial residual = 1.12045e-06, Final residual = 7.95863e-08, No Iterations 2
time step continuity errors : sum local = 1.60748e-07, global = 1.7204e-08, cumulative = 0.0207049
smoothSolver:  Solving for omega, Initial residual = 4.88752e-08, Final residual = 8.5029e-09, No Iterations 3
smoothSolver:  Solving for k, Initial residual = 1.50812e-07, Final residual = 1.29029e-08, No Iterations 5
ExecutionTime = 7.23 s  ClockTime = 7 s

scalarTransport execute: age
smoothSolver:  Solving for age, Initial residual = 0.000299138, Final residual = 2.78842e-05, No Iterations 15

Time = 564

smoothSolver:  Solving for Ux, Initial residual = 3.47854e-07, Final residual = 3.02789e-08, No Iterations 5
smoothSolver:  Solving for Uy, Initial residual = 2.20336e-07, Final residual = 1.82484e-08, No Iterations 5
GAMG:  Solving for p, Initial residual = 1.09691e-06, Final residual = 7.79196e-08, No Iterations 2
time step continuity errors : sum local = 1.57381e-07, global = 1.68541e-08, cumulative = 0.020705
smoothSolver:  Solving for omega, Initial residual = 4.79436e-08, Final residual = 8.34935e-09, No Iterations 3
smoothSolver:  Solving for k, Initial residual = 1.4752e-07, Final residual = 1.26227e-08, No Iterations 5
ExecutionTime = 7.24 s  ClockTime = 7 s

scalarTransport execute: age
smoothSolver:  Solving for age, Initial residual = 0.00029849, Final residual = 2.78246e-05, No Iterations 15

Time = 565

smoothSolver:  Solving for Ux, Initial residual = 3.40495e-07, Final residual = 2.96378e-08, No Iterations 5
smoothSolver:  Solving for Uy, Initial residual = 2.15648e-07, Final residual = 1.7858e-08, No Iterations 5
GAMG:  Solving for p, Initial residual = 1.07388e-06, Final residual = 7.62881e-08, No Iterations 2
time step continuity errors : sum local = 1.54086e-07, global = 1.65113e-08, cumulative = 0.020705
smoothSolver:  Solving for omega, Initial residual = 4.70198e-08, Final residual = 8.19607e-09, No Iterations 3
smoothSolver:  Solving for k, Initial residual = 1.44308e-07, Final residual = 1.23496e-08, No Iterations 5
ExecutionTime = 7.25 s  ClockTime = 7 s

scalarTransport execute: age
smoothSolver:  Solving for age, Initial residual = 0.000297844, Final residual = 2.77652e-05, No Iterations 15

Time = 566

smoothSolver:  Solving for Ux, Initial residual = 3.33297e-07, Final residual = 2.90106e-08, No Iterations 5
smoothSolver:  Solving for Uy, Initial residual = 2.11067e-07, Final residual = 1.74765e-08, No Iterations 5
GAMG:  Solving for p, Initial residual = 1.05134e-06, Final residual = 7.4691e-08, No Iterations 2
time step continuity errors : sum local = 1.5086e-07, global = 1.61752e-08, cumulative = 0.020705
smoothSolver:  Solving for omega, Initial residual = 4.6105e-08, Final residual = 8.04344e-09, No Iterations 3
smoothSolver:  Solving for k, Initial residual = 1.41175e-07, Final residual = 1.20838e-08, No Iterations 5
ExecutionTime = 7.27 s  ClockTime = 7 s

scalarTransport execute: age
smoothSolver:  Solving for age, Initial residual = 0.000297202, Final residual = 2.7706e-05, No Iterations 15

Time = 567

smoothSolver:  Solving for Ux, Initial residual = 3.26257e-07, Final residual = 2.83969e-08, No Iterations 5
smoothSolver:  Solving for Uy, Initial residual = 2.06591e-07, Final residual = 1.71039e-08, No Iterations 5
GAMG:  Solving for p, Initial residual = 1.02929e-06, Final residual = 7.31275e-08, No Iterations 2
time step continuity errors : sum local = 1.47702e-07, global = 1.58454e-08, cumulative = 0.020705
smoothSolver:  Solving for omega, Initial residual = 4.52002e-08, Final residual = 7.89177e-09, No Iterations 3
smoothSolver:  Solving for k, Initial residual = 1.3812e-07, Final residual = 1.18249e-08, No Iterations 5
ExecutionTime = 7.28 s  ClockTime = 7 s

scalarTransport execute: age
smoothSolver:  Solving for age, Initial residual = 0.000296562, Final residual = 2.7647e-05, No Iterations 15

Time = 568

smoothSolver:  Solving for Ux, Initial residual = 3.19367e-07, Final residual = 2.77963e-08, No Iterations 5
smoothSolver:  Solving for Uy, Initial residual = 2.02214e-07, Final residual = 1.67398e-08, No Iterations 5
GAMG:  Solving for p, Initial residual = 1.00771e-06, Final residual = 7.15967e-08, No Iterations 2
time step continuity errors : sum local = 1.4461e-07, global = 1.55218e-08, cumulative = 0.020705
smoothSolver:  Solving for omega, Initial residual = 4.43063e-08, Final residual = 7.74132e-09, No Iterations 3
smoothSolver:  Solving for k, Initial residual = 1.35143e-07, Final residual = 1.15729e-08, No Iterations 5
ExecutionTime = 7.29 s  ClockTime = 7 s

scalarTransport execute: age
smoothSolver:  Solving for age, Initial residual = 0.000295924, Final residual = 2.75882e-05, No Iterations 15

Time = 569

smoothSolver:  Solving for Ux, Initial residual = 3.12622e-07, Final residual = 2.72082e-08, No Iterations 5
smoothSolver:  Solving for Uy, Initial residual = 1.97935e-07, Final residual = 1.63843e-08, No Iterations 5
GAMG:  Solving for p, Initial residual = 9.86595e-07, Final residual = 7.00975e-08, No Iterations 2
time step continuity errors : sum local = 1.41582e-07, global = 1.52043e-08, cumulative = 0.020705
smoothSolver:  Solving for omega, Initial residual = 4.34243e-08, Final residual = 7.5923e-09, No Iterations 3
smoothSolver:  Solving for k, Initial residual = 1.32242e-07, Final residual = 1.13275e-08, No Iterations 5
ExecutionTime = 7.3 s  ClockTime = 7 s


SIMPLE solution converged in 569 iterations

scalarTransport execute: age
smoothSolver:  Solving for age, Initial residual = 0.000295289, Final residual = 2.75297e-05, No Iterations 15

End

