/*---------------------------------------------------------------------------*\
| =========                 |                                                 |
| \\      /  F ield         | OpenFOAM: The Open Source CFD Toolbox           |
|  \\    /   O peration     | Version:  v2012                                 |
|   \\  /    A nd           | Website:  www.openfoam.com                      |
|    \\/     M anipulation  |                                                 |
\*---------------------------------------------------------------------------*/
Build  : _7bdb509494-20201222 OPENFOAM=2012
Arch   : "LSB;label=32;scalar=64"
Exec   : simpleFoam
Date   : Feb 23 2023
Time   : 10:30:26
Host   : johnsDesktop
PID    : 32549
I/O    : uncollated
Case   : /home/john/of_runs/cases/0_86_703_0
nProcs : 1
trapFpe: Floating point exception trapping enabled (FOAM_SIGFPE).
fileModificationChecking : Monitoring run-time modified files using timeStampMaster (fileModificationSkew 5, maxFileModificationPolls 20)
allowSystemOperations : Allowing user-supplied system call operations

// * * * * * * * * * * * * * * * * * * * * * * * * * * * * * * * * * * * * * //
Create time

Create mesh for time = 0


SIMPLE: convergence criteria
    field p	 tolerance 1e-06
    field U	 tolerance 1e-06
    field "(k|epsilon|omega|f|v2|age)"	 tolerance 1e-05

Reading field p

Reading field U

Reading/calculating face flux field phi

Selecting incompressible transport model Newtonian
Selecting turbulence model type RAS
Selecting RAS turbulence model kOmegaSST
Selecting patchDistMethod meshWave
RAS
{
    RASModel        kOmegaSST;
    turbulence      on;
    printCoeffs     on;
    alphaK1         0.85;
    alphaK2         1;
    alphaOmega1     0.5;
    alphaOmega2     0.856;
    gamma1          0.555556;
    gamma2          0.44;
    beta1           0.075;
    beta2           0.0828;
    betaStar        0.09;
    a1              0.31;
    b1              1;
    c1              10;
    F3              false;
    decayControl    false;
    kInf            0;
    omegaInf        0;
}

No MRF models present

No finite volume options present

Starting time loop

Selecting finite volume options type scalarSemiImplicitSource
    Source: unitySource
    - selecting all cells
    - selected 6018 cell(s) with volume 0.03157
Time = 1

smoothSolver:  Solving for Ux, Initial residual = 0, Final residual = 0, No Iterations 0
smoothSolver:  Solving for Uy, Initial residual = 1, Final residual = 0.0359328, No Iterations 2
GAMG:  Solving for p, Initial residual = 1, Final residual = 0.0886527, No Iterations 9
time step continuity errors : sum local = 0.00561626, global = -0.000210932, cumulative = -0.000210932
smoothSolver:  Solving for omega, Initial residual = 0.139302, Final residual = 0.0070913, No Iterations 3
smoothSolver:  Solving for k, Initial residual = 1, Final residual = 0.0719455, No Iterations 3
ExecutionTime = 0.05 s  ClockTime = 0 s

scalarTransport execute: age
smoothSolver:  Solving for age, Initial residual = 1, Final residual = 0.0948741, No Iterations 6

Time = 2

smoothSolver:  Solving for Ux, Initial residual = 0.429767, Final residual = 0.0369399, No Iterations 5
smoothSolver:  Solving for Uy, Initial residual = 0.241744, Final residual = 0.0166161, No Iterations 5
GAMG:  Solving for p, Initial residual = 0.075175, Final residual = 0.00725611, No Iterations 3
time step continuity errors : sum local = 0.0505925, global = 0.00359778, cumulative = 0.00338684
smoothSolver:  Solving for omega, Initial residual = 0.0755821, Final residual = 0.00586563, No Iterations 3
smoothSolver:  Solving for k, Initial residual = 0.521318, Final residual = 0.0348581, No Iterations 4
ExecutionTime = 0.06 s  ClockTime = 0 s

scalarTransport execute: age
smoothSolver:  Solving for age, Initial residual = 0.518529, Final residual = 0.0510909, No Iterations 6

Time = 3

smoothSolver:  Solving for Ux, Initial residual = 0.220489, Final residual = 0.0210269, No Iterations 4
smoothSolver:  Solving for Uy, Initial residual = 0.110282, Final residual = 0.00942005, No Iterations 4
GAMG:  Solving for p, Initial residual = 0.0659923, Final residual = 0.00541704, No Iterations 3
time step continuity errors : sum local = 0.0305377, global = 0.00428325, cumulative = 0.00767009
smoothSolver:  Solving for omega, Initial residual = 0.0280339, Final residual = 0.0019758, No Iterations 4
smoothSolver:  Solving for k, Initial residual = 0.340962, Final residual = 0.0296982, No Iterations 4
ExecutionTime = 0.08 s  ClockTime = 0 s

scalarTransport execute: age
smoothSolver:  Solving for age, Initial residual = 0.313486, Final residual = 0.0282097, No Iterations 7

Time = 4

smoothSolver:  Solving for Ux, Initial residual = 0.145945, Final residual = 0.0112509, No Iterations 4
smoothSolver:  Solving for Uy, Initial residual = 0.0831774, Final residual = 0.00674344, No Iterations 4
GAMG:  Solving for p, Initial residual = 0.0677989, Final residual = 0.00560923, No Iterations 2
time step continuity errors : sum local = 0.0258581, global = 0.00371383, cumulative = 0.0113839
smoothSolver:  Solving for omega, Initial residual = 0.0195432, Final residual = 0.00132386, No Iterations 4
smoothSolver:  Solving for k, Initial residual = 0.257632, Final residual = 0.0254545, No Iterations 4
ExecutionTime = 0.09 s  ClockTime = 0 s

scalarTransport execute: age
smoothSolver:  Solving for age, Initial residual = 0.214794, Final residual = 0.0201006, No Iterations 7

Time = 5

smoothSolver:  Solving for Ux, Initial residual = 0.124248, Final residual = 0.00985159, No Iterations 4
smoothSolver:  Solving for Uy, Initial residual = 0.0757442, Final residual = 0.00701883, No Iterations 4
GAMG:  Solving for p, Initial residual = 0.0656601, Final residual = 0.00314053, No Iterations 3
time step continuity errors : sum local = 0.0147088, global = 0.000962382, cumulative = 0.0123463
smoothSolver:  Solving for omega, Initial residual = 0.0131515, Final residual = 0.000897188, No Iterations 4
smoothSolver:  Solving for k, Initial residual = 0.197926, Final residual = 0.0125148, No Iterations 5
ExecutionTime = 0.1 s  ClockTime = 0 s

scalarTransport execute: age
smoothSolver:  Solving for age, Initial residual = 0.160091, Final residual = 0.0148062, No Iterations 8

Time = 6

smoothSolver:  Solving for Ux, Initial residual = 0.114319, Final residual = 0.0100972, No Iterations 4
smoothSolver:  Solving for Uy, Initial residual = 0.069621, Final residual = 0.00453355, No Iterations 5
GAMG:  Solving for p, Initial residual = 0.0566376, Final residual = 0.00257884, No Iterations 3
time step continuity errors : sum local = 0.0122629, global = 0.000130827, cumulative = 0.0124771
smoothSolver:  Solving for omega, Initial residual = 0.00987507, Final residual = 0.000639183, No Iterations 4
smoothSolver:  Solving for k, Initial residual = 0.155706, Final residual = 0.0102498, No Iterations 5
ExecutionTime = 0.11 s  ClockTime = 1 s

scalarTransport execute: age
smoothSolver:  Solving for age, Initial residual = 0.124371, Final residual = 0.0107958, No Iterations 9

Time = 7

smoothSolver:  Solving for Ux, Initial residual = 0.104774, Final residual = 0.00957305, No Iterations 4
smoothSolver:  Solving for Uy, Initial residual = 0.0672769, Final residual = 0.00457833, No Iterations 5
GAMG:  Solving for p, Initial residual = 0.0516603, Final residual = 0.00251179, No Iterations 3
time step continuity errors : sum local = 0.0125541, global = -0.000527019, cumulative = 0.0119501
smoothSolver:  Solving for omega, Initial residual = 0.00828507, Final residual = 0.000479816, No Iterations 4
smoothSolver:  Solving for k, Initial residual = 0.126879, Final residual = 0.00841708, No Iterations 5
ExecutionTime = 0.12 s  ClockTime = 1 s

scalarTransport execute: age
smoothSolver:  Solving for age, Initial residual = 0.108422, Final residual = 0.00982403, No Iterations 9

Time = 8

smoothSolver:  Solving for Ux, Initial residual = 0.097125, Final residual = 0.00897097, No Iterations 4
smoothSolver:  Solving for Uy, Initial residual = 0.0662649, Final residual = 0.00456164, No Iterations 5
GAMG:  Solving for p, Initial residual = 0.0531234, Final residual = 0.00214173, No Iterations 3
time step continuity errors : sum local = 0.0115268, global = -0.000598656, cumulative = 0.0113515
smoothSolver:  Solving for omega, Initial residual = 0.00713542, Final residual = 0.000694279, No Iterations 3
smoothSolver:  Solving for k, Initial residual = 0.107113, Final residual = 0.00696061, No Iterations 5
ExecutionTime = 0.14 s  ClockTime = 1 s

scalarTransport execute: age
smoothSolver:  Solving for age, Initial residual = 0.0997361, Final residual = 0.00924158, No Iterations 9

Time = 9

smoothSolver:  Solving for Ux, Initial residual = 0.0910192, Final residual = 0.00831956, No Iterations 4
smoothSolver:  Solving for Uy, Initial residual = 0.0664051, Final residual = 0.00452914, No Iterations 5
GAMG:  Solving for p, Initial residual = 0.0549865, Final residual = 0.00228907, No Iterations 3
time step continuity errors : sum local = 0.0129443, global = -0.000583623, cumulative = 0.0107678
smoothSolver:  Solving for omega, Initial residual = 0.0067701, Final residual = 0.000603471, No Iterations 3
smoothSolver:  Solving for k, Initial residual = 0.0931344, Final residual = 0.00573856, No Iterations 5
ExecutionTime = 0.15 s  ClockTime = 1 s

scalarTransport execute: age
smoothSolver:  Solving for age, Initial residual = 0.0960443, Final residual = 0.00878301, No Iterations 9

Time = 10

smoothSolver:  Solving for Ux, Initial residual = 0.0871672, Final residual = 0.00786333, No Iterations 4
smoothSolver:  Solving for Uy, Initial residual = 0.065848, Final residual = 0.00441794, No Iterations 5
GAMG:  Solving for p, Initial residual = 0.0573432, Final residual = 0.00276598, No Iterations 3
time step continuity errors : sum local = 0.0158864, global = -0.000384971, cumulative = 0.0103829
smoothSolver:  Solving for omega, Initial residual = 0.00654153, Final residual = 0.000548569, No Iterations 3
smoothSolver:  Solving for k, Initial residual = 0.0827717, Final residual = 0.00789959, No Iterations 4
ExecutionTime = 0.16 s  ClockTime = 1 s

scalarTransport execute: age
smoothSolver:  Solving for age, Initial residual = 0.0955467, Final residual = 0.0085361, No Iterations 9

Time = 11

smoothSolver:  Solving for Ux, Initial residual = 0.0840114, Final residual = 0.00741922, No Iterations 4
smoothSolver:  Solving for Uy, Initial residual = 0.0656027, Final residual = 0.00431723, No Iterations 5
GAMG:  Solving for p, Initial residual = 0.0567206, Final residual = 0.00307781, No Iterations 3
time step continuity errors : sum local = 0.017702, global = 3.8092e-05, cumulative = 0.0104209
smoothSolver:  Solving for omega, Initial residual = 0.00686001, Final residual = 0.000513295, No Iterations 3
smoothSolver:  Solving for k, Initial residual = 0.0760318, Final residual = 0.00661611, No Iterations 4
ExecutionTime = 0.17 s  ClockTime = 1 s

scalarTransport execute: age
smoothSolver:  Solving for age, Initial residual = 0.0979568, Final residual = 0.00869773, No Iterations 9

Time = 12

smoothSolver:  Solving for Ux, Initial residual = 0.0812497, Final residual = 0.00700361, No Iterations 4
smoothSolver:  Solving for Uy, Initial residual = 0.0649072, Final residual = 0.00414302, No Iterations 5
GAMG:  Solving for p, Initial residual = 0.0586662, Final residual = 0.0030244, No Iterations 3
time step continuity errors : sum local = 0.0175709, global = 0.000604387, cumulative = 0.0110253
smoothSolver:  Solving for omega, Initial residual = 0.00689453, Final residual = 0.000481538, No Iterations 3
smoothSolver:  Solving for k, Initial residual = 0.0714087, Final residual = 0.00561008, No Iterations 4
ExecutionTime = 0.19 s  ClockTime = 1 s

scalarTransport execute: age
smoothSolver:  Solving for age, Initial residual = 0.0983818, Final residual = 0.00898842, No Iterations 9

Time = 13

smoothSolver:  Solving for Ux, Initial residual = 0.0775403, Final residual = 0.00658715, No Iterations 4
smoothSolver:  Solving for Uy, Initial residual = 0.0640481, Final residual = 0.00638175, No Iterations 4
GAMG:  Solving for p, Initial residual = 0.0586191, Final residual = 0.00273774, No Iterations 3
time step continuity errors : sum local = 0.0161878, global = 0.00109723, cumulative = 0.0121226
smoothSolver:  Solving for omega, Initial residual = 0.00659891, Final residual = 0.000452369, No Iterations 3
smoothSolver:  Solving for k, Initial residual = 0.0691021, Final residual = 0.00484403, No Iterations 4
ExecutionTime = 0.2 s  ClockTime = 1 s

scalarTransport execute: age
smoothSolver:  Solving for age, Initial residual = 0.098913, Final residual = 0.00940034, No Iterations 9

Time = 14

smoothSolver:  Solving for Ux, Initial residual = 0.0734008, Final residual = 0.00607033, No Iterations 4
smoothSolver:  Solving for Uy, Initial residual = 0.0638881, Final residual = 0.00617601, No Iterations 4
GAMG:  Solving for p, Initial residual = 0.0601214, Final residual = 0.00223401, No Iterations 3
time step continuity errors : sum local = 0.0135199, global = 0.00147839, cumulative = 0.013601
smoothSolver:  Solving for omega, Initial residual = 0.00662183, Final residual = 0.000431277, No Iterations 3
smoothSolver:  Solving for k, Initial residual = 0.0682197, Final residual = 0.00424124, No Iterations 4
ExecutionTime = 0.21 s  ClockTime = 1 s

scalarTransport execute: age
smoothSolver:  Solving for age, Initial residual = 0.101223, Final residual = 0.00974484, No Iterations 9

Time = 15

smoothSolver:  Solving for Ux, Initial residual = 0.0703354, Final residual = 0.00564372, No Iterations 4
smoothSolver:  Solving for Uy, Initial residual = 0.0629939, Final residual = 0.00590769, No Iterations 4
GAMG:  Solving for p, Initial residual = 0.0620315, Final residual = 0.00194163, No Iterations 3
time step continuity errors : sum local = 0.011865, global = 0.0013516, cumulative = 0.0149526
smoothSolver:  Solving for omega, Initial residual = 0.00662119, Final residual = 0.000409862, No Iterations 3
smoothSolver:  Solving for k, Initial residual = 0.0675968, Final residual = 0.00374623, No Iterations 4
ExecutionTime = 0.22 s  ClockTime = 1 s

scalarTransport execute: age
smoothSolver:  Solving for age, Initial residual = 0.104387, Final residual = 0.010191, No Iterations 9

Time = 16

smoothSolver:  Solving for Ux, Initial residual = 0.0685875, Final residual = 0.00525149, No Iterations 4
smoothSolver:  Solving for Uy, Initial residual = 0.0616748, Final residual = 0.00558864, No Iterations 4
GAMG:  Solving for p, Initial residual = 0.065295, Final residual = 0.00639632, No Iterations 2
time step continuity errors : sum local = 0.039025, global = 0.00216522, cumulative = 0.0171178
smoothSolver:  Solving for omega, Initial residual = 0.00650364, Final residual = 0.000378609, No Iterations 3
smoothSolver:  Solving for k, Initial residual = 0.0657364, Final residual = 0.0061505, No Iterations 3
ExecutionTime = 0.23 s  ClockTime = 1 s

scalarTransport execute: age
smoothSolver:  Solving for age, Initial residual = 0.105945, Final residual = 0.0105224, No Iterations 9

Time = 17

smoothSolver:  Solving for Ux, Initial residual = 0.0677143, Final residual = 0.00497152, No Iterations 4
smoothSolver:  Solving for Uy, Initial residual = 0.0597737, Final residual = 0.0052408, No Iterations 4
GAMG:  Solving for p, Initial residual = 0.0683518, Final residual = 0.00254087, No Iterations 3
time step continuity errors : sum local = 0.0157249, global = 0.00134454, cumulative = 0.0184623
smoothSolver:  Solving for omega, Initial residual = 0.00668147, Final residual = 0.00035638, No Iterations 3
smoothSolver:  Solving for k, Initial residual = 0.0661307, Final residual = 0.00569014, No Iterations 3
ExecutionTime = 0.24 s  ClockTime = 1 s

scalarTransport execute: age
smoothSolver:  Solving for age, Initial residual = 0.107792, Final residual = 0.00955937, No Iterations 10

Time = 18

smoothSolver:  Solving for Ux, Initial residual = 0.0664836, Final residual = 0.00453155, No Iterations 4
smoothSolver:  Solving for Uy, Initial residual = 0.0580081, Final residual = 0.00468794, No Iterations 4
GAMG:  Solving for p, Initial residual = 0.0692888, Final residual = 0.00194838, No Iterations 3
time step continuity errors : sum local = 0.0117079, global = 0.00162784, cumulative = 0.0200902
smoothSolver:  Solving for omega, Initial residual = 0.00643888, Final residual = 0.000323957, No Iterations 3
smoothSolver:  Solving for k, Initial residual = 0.0647805, Final residual = 0.00514161, No Iterations 3
ExecutionTime = 0.26 s  ClockTime = 1 s

scalarTransport execute: age
smoothSolver:  Solving for age, Initial residual = 0.106833, Final residual = 0.00963328, No Iterations 10

Time = 19

smoothSolver:  Solving for Ux, Initial residual = 0.0646566, Final residual = 0.00425107, No Iterations 4
smoothSolver:  Solving for Uy, Initial residual = 0.056115, Final residual = 0.00436075, No Iterations 4
GAMG:  Solving for p, Initial residual = 0.0715513, Final residual = 0.00675542, No Iterations 2
time step continuity errors : sum local = 0.0402622, global = 0.00240488, cumulative = 0.022495
smoothSolver:  Solving for omega, Initial residual = 0.0060584, Final residual = 0.000293142, No Iterations 3
smoothSolver:  Solving for k, Initial residual = 0.0628055, Final residual = 0.00464771, No Iterations 3
ExecutionTime = 0.27 s  ClockTime = 1 s

scalarTransport execute: age
smoothSolver:  Solving for age, Initial residual = 0.106258, Final residual = 0.00970301, No Iterations 10

Time = 20

smoothSolver:  Solving for Ux, Initial residual = 0.0623734, Final residual = 0.00398597, No Iterations 4
smoothSolver:  Solving for Uy, Initial residual = 0.0531592, Final residual = 0.00395694, No Iterations 4
GAMG:  Solving for p, Initial residual = 0.0754389, Final residual = 0.00681389, No Iterations 2
time step continuity errors : sum local = 0.0404039, global = 0.00396981, cumulative = 0.0264648
smoothSolver:  Solving for omega, Initial residual = 0.00572263, Final residual = 0.000265734, No Iterations 3
smoothSolver:  Solving for k, Initial residual = 0.059597, Final residual = 0.00426209, No Iterations 3
ExecutionTime = 0.28 s  ClockTime = 1 s

scalarTransport execute: age
smoothSolver:  Solving for age, Initial residual = 0.102627, Final residual = 0.00954453, No Iterations 10

Time = 21

smoothSolver:  Solving for Ux, Initial residual = 0.0598879, Final residual = 0.0037, No Iterations 4
smoothSolver:  Solving for Uy, Initial residual = 0.0499661, Final residual = 0.00344677, No Iterations 4
GAMG:  Solving for p, Initial residual = 0.0749239, Final residual = 0.00598561, No Iterations 2
time step continuity errors : sum local = 0.0347806, global = 0.0042741, cumulative = 0.0307389
smoothSolver:  Solving for omega, Initial residual = 0.00532812, Final residual = 0.00024295, No Iterations 3
smoothSolver:  Solving for k, Initial residual = 0.0553408, Final residual = 0.00395958, No Iterations 3
ExecutionTime = 0.29 s  ClockTime = 1 s

scalarTransport execute: age
smoothSolver:  Solving for age, Initial residual = 0.0997525, Final residual = 0.00942525, No Iterations 10

Time = 22

smoothSolver:  Solving for Ux, Initial residual = 0.0572012, Final residual = 0.00340094, No Iterations 4
smoothSolver:  Solving for Uy, Initial residual = 0.0467179, Final residual = 0.00304397, No Iterations 4
GAMG:  Solving for p, Initial residual = 0.0752116, Final residual = 0.00554859, No Iterations 2
time step continuity errors : sum local = 0.0307872, global = 0.00363326, cumulative = 0.0343722
smoothSolver:  Solving for omega, Initial residual = 0.00489671, Final residual = 0.000219153, No Iterations 3
smoothSolver:  Solving for k, Initial residual = 0.0511235, Final residual = 0.0037479, No Iterations 3
ExecutionTime = 0.3 s  ClockTime = 1 s

scalarTransport execute: age
smoothSolver:  Solving for age, Initial residual = 0.0944331, Final residual = 0.00879533, No Iterations 10

Time = 23

smoothSolver:  Solving for Ux, Initial residual = 0.0536878, Final residual = 0.00309127, No Iterations 4
smoothSolver:  Solving for Uy, Initial residual = 0.043161, Final residual = 0.00278557, No Iterations 4
GAMG:  Solving for p, Initial residual = 0.0750512, Final residual = 0.00545863, No Iterations 2
time step continuity errors : sum local = 0.0288411, global = 0.00326155, cumulative = 0.0376338
smoothSolver:  Solving for omega, Initial residual = 0.00451996, Final residual = 0.000450689, No Iterations 2
smoothSolver:  Solving for k, Initial residual = 0.047838, Final residual = 0.00360524, No Iterations 3
ExecutionTime = 0.31 s  ClockTime = 1 s

scalarTransport execute: age
smoothSolver:  Solving for age, Initial residual = 0.0909838, Final residual = 0.00829065, No Iterations 10

Time = 24

smoothSolver:  Solving for Ux, Initial residual = 0.0497079, Final residual = 0.00283262, No Iterations 4
smoothSolver:  Solving for Uy, Initial residual = 0.0394446, Final residual = 0.00258494, No Iterations 4
GAMG:  Solving for p, Initial residual = 0.0742119, Final residual = 0.00524882, No Iterations 2
time step continuity errors : sum local = 0.0265839, global = 0.00283221, cumulative = 0.040466
smoothSolver:  Solving for omega, Initial residual = 0.00441293, Final residual = 0.000200195, No Iterations 3
smoothSolver:  Solving for k, Initial residual = 0.0455094, Final residual = 0.00349465, No Iterations 3
ExecutionTime = 0.32 s  ClockTime = 1 s

scalarTransport execute: age
smoothSolver:  Solving for age, Initial residual = 0.0876224, Final residual = 0.00798133, No Iterations 10

Time = 25

smoothSolver:  Solving for Ux, Initial residual = 0.045503, Final residual = 0.00262599, No Iterations 4
smoothSolver:  Solving for Uy, Initial residual = 0.0368774, Final residual = 0.00245275, No Iterations 4
GAMG:  Solving for p, Initial residual = 0.0719125, Final residual = 0.00520537, No Iterations 2
time step continuity errors : sum local = 0.0250185, global = 0.00213035, cumulative = 0.0425963
smoothSolver:  Solving for omega, Initial residual = 0.0037867, Final residual = 0.000189263, No Iterations 3
smoothSolver:  Solving for k, Initial residual = 0.043845, Final residual = 0.00339945, No Iterations 3
ExecutionTime = 0.33 s  ClockTime = 1 s

scalarTransport execute: age
smoothSolver:  Solving for age, Initial residual = 0.084491, Final residual = 0.00781001, No Iterations 10

Time = 26

smoothSolver:  Solving for Ux, Initial residual = 0.0415031, Final residual = 0.00248845, No Iterations 4
smoothSolver:  Solving for Uy, Initial residual = 0.035214, Final residual = 0.00239245, No Iterations 4
GAMG:  Solving for p, Initial residual = 0.069157, Final residual = 0.00509699, No Iterations 2
time step continuity errors : sum local = 0.0236694, global = 0.0012708, cumulative = 0.0438671
smoothSolver:  Solving for omega, Initial residual = 0.00351168, Final residual = 0.00018262, No Iterations 3
smoothSolver:  Solving for k, Initial residual = 0.0426698, Final residual = 0.00332966, No Iterations 3
ExecutionTime = 0.34 s  ClockTime = 1 s

scalarTransport execute: age
smoothSolver:  Solving for age, Initial residual = 0.0815705, Final residual = 0.00761786, No Iterations 10

Time = 27

smoothSolver:  Solving for Ux, Initial residual = 0.0378573, Final residual = 0.00238705, No Iterations 4
smoothSolver:  Solving for Uy, Initial residual = 0.0341074, Final residual = 0.00241018, No Iterations 4
GAMG:  Solving for p, Initial residual = 0.0652264, Final residual = 0.00505555, No Iterations 2
time step continuity errors : sum local = 0.0231163, global = 0.000413496, cumulative = 0.0442806
smoothSolver:  Solving for omega, Initial residual = 0.00333725, Final residual = 0.000178095, No Iterations 3
smoothSolver:  Solving for k, Initial residual = 0.0414675, Final residual = 0.00328948, No Iterations 3
ExecutionTime = 0.35 s  ClockTime = 1 s

scalarTransport execute: age
smoothSolver:  Solving for age, Initial residual = 0.0787873, Final residual = 0.00731601, No Iterations 10

Time = 28

smoothSolver:  Solving for Ux, Initial residual = 0.0345862, Final residual = 0.00226971, No Iterations 4
smoothSolver:  Solving for Uy, Initial residual = 0.0334617, Final residual = 0.00244537, No Iterations 4
GAMG:  Solving for p, Initial residual = 0.0608205, Final residual = 0.00487168, No Iterations 2
time step continuity errors : sum local = 0.0222807, global = -0.000463423, cumulative = 0.0438172
smoothSolver:  Solving for omega, Initial residual = 0.00316598, Final residual = 0.000174876, No Iterations 3
smoothSolver:  Solving for k, Initial residual = 0.0405262, Final residual = 0.00331714, No Iterations 3
ExecutionTime = 0.37 s  ClockTime = 1 s

scalarTransport execute: age
smoothSolver:  Solving for age, Initial residual = 0.0760949, Final residual = 0.00698612, No Iterations 10

Time = 29

smoothSolver:  Solving for Ux, Initial residual = 0.031542, Final residual = 0.00209363, No Iterations 4
smoothSolver:  Solving for Uy, Initial residual = 0.0330615, Final residual = 0.00250106, No Iterations 4
GAMG:  Solving for p, Initial residual = 0.057752, Final residual = 0.00457971, No Iterations 2
time step continuity errors : sum local = 0.0211586, global = -0.00127265, cumulative = 0.0425445
smoothSolver:  Solving for omega, Initial residual = 0.00308116, Final residual = 0.000174309, No Iterations 3
smoothSolver:  Solving for k, Initial residual = 0.0406447, Final residual = 0.00334784, No Iterations 3
ExecutionTime = 0.38 s  ClockTime = 1 s

scalarTransport execute: age
smoothSolver:  Solving for age, Initial residual = 0.0735066, Final residual = 0.00669804, No Iterations 10

Time = 30

smoothSolver:  Solving for Ux, Initial residual = 0.0287733, Final residual = 0.0018946, No Iterations 4
smoothSolver:  Solving for Uy, Initial residual = 0.0325285, Final residual = 0.00259664, No Iterations 4
GAMG:  Solving for p, Initial residual = 0.0559118, Final residual = 0.00433436, No Iterations 2
time step continuity errors : sum local = 0.0202655, global = -0.0017766, cumulative = 0.0407679
smoothSolver:  Solving for omega, Initial residual = 0.00295745, Final residual = 0.000173138, No Iterations 3
smoothSolver:  Solving for k, Initial residual = 0.0405842, Final residual = 0.00331721, No Iterations 3
ExecutionTime = 0.39 s  ClockTime = 1 s

scalarTransport execute: age
smoothSolver:  Solving for age, Initial residual = 0.071814, Final residual = 0.00645506, No Iterations 10

Time = 31

smoothSolver:  Solving for Ux, Initial residual = 0.0262007, Final residual = 0.00170226, No Iterations 4
smoothSolver:  Solving for Uy, Initial residual = 0.0322341, Final residual = 0.00267601, No Iterations 4
GAMG:  Solving for p, Initial residual = 0.0542578, Final residual = 0.00421088, No Iterations 2
time step continuity errors : sum local = 0.0199923, global = -0.00182879, cumulative = 0.0389391
smoothSolver:  Solving for omega, Initial residual = 0.00295121, Final residual = 0.00017026, No Iterations 3
smoothSolver:  Solving for k, Initial residual = 0.0399043, Final residual = 0.00319821, No Iterations 3
ExecutionTime = 0.4 s  ClockTime = 1 s

scalarTransport execute: age
smoothSolver:  Solving for age, Initial residual = 0.0700732, Final residual = 0.00621614, No Iterations 10

Time = 32

smoothSolver:  Solving for Ux, Initial residual = 0.024034, Final residual = 0.0015312, No Iterations 4
smoothSolver:  Solving for Uy, Initial residual = 0.0311927, Final residual = 0.00267536, No Iterations 4
GAMG:  Solving for p, Initial residual = 0.0524192, Final residual = 0.00427801, No Iterations 2
time step continuity errors : sum local = 0.0206512, global = -0.00141633, cumulative = 0.0375228
smoothSolver:  Solving for omega, Initial residual = 0.00293098, Final residual = 0.000164258, No Iterations 3
smoothSolver:  Solving for k, Initial residual = 0.0386224, Final residual = 0.00302275, No Iterations 3
ExecutionTime = 0.41 s  ClockTime = 1 s

scalarTransport execute: age
smoothSolver:  Solving for age, Initial residual = 0.0672857, Final residual = 0.00591781, No Iterations 10

Time = 33

smoothSolver:  Solving for Ux, Initial residual = 0.0224012, Final residual = 0.00139037, No Iterations 4
smoothSolver:  Solving for Uy, Initial residual = 0.0298363, Final residual = 0.0025882, No Iterations 4
GAMG:  Solving for p, Initial residual = 0.0505614, Final residual = 0.00438941, No Iterations 2
time step continuity errors : sum local = 0.0215037, global = -0.000581564, cumulative = 0.0369412
smoothSolver:  Solving for omega, Initial residual = 0.00288913, Final residual = 0.000155249, No Iterations 3
smoothSolver:  Solving for k, Initial residual = 0.0371606, Final residual = 0.00283037, No Iterations 3
ExecutionTime = 0.42 s  ClockTime = 1 s

scalarTransport execute: age
smoothSolver:  Solving for age, Initial residual = 0.0636397, Final residual = 0.0056858, No Iterations 10

Time = 34

smoothSolver:  Solving for Ux, Initial residual = 0.0213044, Final residual = 0.00128802, No Iterations 4
smoothSolver:  Solving for Uy, Initial residual = 0.0284568, Final residual = 0.00242564, No Iterations 4
GAMG:  Solving for p, Initial residual = 0.0489038, Final residual = 0.00429045, No Iterations 2
time step continuity errors : sum local = 0.0212394, global = 0.000584208, cumulative = 0.0375254
smoothSolver:  Solving for omega, Initial residual = 0.00280634, Final residual = 0.000143856, No Iterations 3
smoothSolver:  Solving for k, Initial residual = 0.0355884, Final residual = 0.00266148, No Iterations 3
ExecutionTime = 0.43 s  ClockTime = 1 s

scalarTransport execute: age
smoothSolver:  Solving for age, Initial residual = 0.0594496, Final residual = 0.00551645, No Iterations 10

Time = 35

smoothSolver:  Solving for Ux, Initial residual = 0.0206612, Final residual = 0.00122098, No Iterations 4
smoothSolver:  Solving for Uy, Initial residual = 0.0265589, Final residual = 0.00221088, No Iterations 4
GAMG:  Solving for p, Initial residual = 0.0471319, Final residual = 0.00318347, No Iterations 2
time step continuity errors : sum local = 0.0158539, global = 0.00160298, cumulative = 0.0391284
smoothSolver:  Solving for omega, Initial residual = 0.00262212, Final residual = 0.0001324, No Iterations 3
smoothSolver:  Solving for k, Initial residual = 0.0335636, Final residual = 0.00251509, No Iterations 3
ExecutionTime = 0.44 s  ClockTime = 1 s

scalarTransport execute: age
smoothSolver:  Solving for age, Initial residual = 0.055691, Final residual = 0.005294, No Iterations 10

Time = 36

smoothSolver:  Solving for Ux, Initial residual = 0.0205463, Final residual = 0.00119473, No Iterations 4
smoothSolver:  Solving for Uy, Initial residual = 0.0243651, Final residual = 0.00196014, No Iterations 4
GAMG:  Solving for p, Initial residual = 0.045302, Final residual = 0.00268067, No Iterations 2
time step continuity errors : sum local = 0.013245, global = 0.00138814, cumulative = 0.0405166
smoothSolver:  Solving for omega, Initial residual = 0.00248842, Final residual = 0.000122214, No Iterations 3
smoothSolver:  Solving for k, Initial residual = 0.0314561, Final residual = 0.00241739, No Iterations 3
ExecutionTime = 0.44 s  ClockTime = 1 s

scalarTransport execute: age
smoothSolver:  Solving for age, Initial residual = 0.0517017, Final residual = 0.00504718, No Iterations 10

Time = 37

smoothSolver:  Solving for Ux, Initial residual = 0.0207491, Final residual = 0.0012225, No Iterations 4
smoothSolver:  Solving for Uy, Initial residual = 0.022649, Final residual = 0.0017233, No Iterations 4
GAMG:  Solving for p, Initial residual = 0.0448875, Final residual = 0.00220193, No Iterations 2
time step continuity errors : sum local = 0.0104443, global = 0.00147021, cumulative = 0.0419868
smoothSolver:  Solving for omega, Initial residual = 0.00235072, Final residual = 0.000115221, No Iterations 3
smoothSolver:  Solving for k, Initial residual = 0.0300181, Final residual = 0.00233843, No Iterations 3
ExecutionTime = 0.47 s  ClockTime = 1 s

scalarTransport execute: age
smoothSolver:  Solving for age, Initial residual = 0.0482285, Final residual = 0.00479997, No Iterations 10

Time = 38

smoothSolver:  Solving for Ux, Initial residual = 0.0201948, Final residual = 0.00121095, No Iterations 4
smoothSolver:  Solving for Uy, Initial residual = 0.0212955, Final residual = 0.00157141, No Iterations 4
GAMG:  Solving for p, Initial residual = 0.0447767, Final residual = 0.00223721, No Iterations 2
time step continuity errors : sum local = 0.0104376, global = 0.00132257, cumulative = 0.0433093
smoothSolver:  Solving for omega, Initial residual = 0.00237599, Final residual = 0.000110842, No Iterations 3
smoothSolver:  Solving for k, Initial residual = 0.0292192, Final residual = 0.0022678, No Iterations 3
ExecutionTime = 0.48 s  ClockTime = 1 s

scalarTransport execute: age
smoothSolver:  Solving for age, Initial residual = 0.0447932, Final residual = 0.00395451, No Iterations 11

Time = 39

smoothSolver:  Solving for Ux, Initial residual = 0.0196333, Final residual = 0.00119688, No Iterations 4
smoothSolver:  Solving for Uy, Initial residual = 0.0192227, Final residual = 0.00134618, No Iterations 4
GAMG:  Solving for p, Initial residual = 0.043568, Final residual = 0.00227978, No Iterations 2
time step continuity errors : sum local = 0.0105201, global = 0.00119726, cumulative = 0.0445066
smoothSolver:  Solving for omega, Initial residual = 0.00216168, Final residual = 0.000104139, No Iterations 3
smoothSolver:  Solving for k, Initial residual = 0.0286868, Final residual = 0.00220735, No Iterations 3
ExecutionTime = 0.49 s  ClockTime = 1 s

scalarTransport execute: age
smoothSolver:  Solving for age, Initial residual = 0.0418607, Final residual = 0.00371576, No Iterations 11

Time = 40

smoothSolver:  Solving for Ux, Initial residual = 0.018903, Final residual = 0.00118047, No Iterations 4
smoothSolver:  Solving for Uy, Initial residual = 0.0175302, Final residual = 0.00116177, No Iterations 4
GAMG:  Solving for p, Initial residual = 0.0419729, Final residual = 0.00234714, No Iterations 2
time step continuity errors : sum local = 0.0107687, global = 0.00108347, cumulative = 0.0455901
smoothSolver:  Solving for omega, Initial residual = 0.00196717, Final residual = 9.69878e-05, No Iterations 3
smoothSolver:  Solving for k, Initial residual = 0.0280005, Final residual = 0.00217235, No Iterations 3
ExecutionTime = 0.5 s  ClockTime = 1 s

scalarTransport execute: age
smoothSolver:  Solving for age, Initial residual = 0.0398071, Final residual = 0.00354746, No Iterations 11

Time = 41

smoothSolver:  Solving for Ux, Initial residual = 0.0182154, Final residual = 0.00115682, No Iterations 4
smoothSolver:  Solving for Uy, Initial residual = 0.0165381, Final residual = 0.00107406, No Iterations 4
GAMG:  Solving for p, Initial residual = 0.04052, Final residual = 0.00249954, No Iterations 2
time step continuity errors : sum local = 0.0114352, global = 0.00098368, cumulative = 0.0465737
smoothSolver:  Solving for omega, Initial residual = 0.00179645, Final residual = 9.06505e-05, No Iterations 3
smoothSolver:  Solving for k, Initial residual = 0.027286, Final residual = 0.00216821, No Iterations 3
ExecutionTime = 0.51 s  ClockTime = 1 s

scalarTransport execute: age
smoothSolver:  Solving for age, Initial residual = 0.0382765, Final residual = 0.00341198, No Iterations 11

Time = 42

smoothSolver:  Solving for Ux, Initial residual = 0.0176684, Final residual = 0.00112705, No Iterations 4
smoothSolver:  Solving for Uy, Initial residual = 0.0162069, Final residual = 0.00107145, No Iterations 4
GAMG:  Solving for p, Initial residual = 0.040003, Final residual = 0.00274006, No Iterations 2
time step continuity errors : sum local = 0.0125174, global = 0.000902973, cumulative = 0.0474767
smoothSolver:  Solving for omega, Initial residual = 0.00166016, Final residual = 8.48057e-05, No Iterations 3
smoothSolver:  Solving for k, Initial residual = 0.0266063, Final residual = 0.00216472, No Iterations 3
ExecutionTime = 0.52 s  ClockTime = 1 s

scalarTransport execute: age
smoothSolver:  Solving for age, Initial residual = 0.0373739, Final residual = 0.00329362, No Iterations 11

Time = 43

smoothSolver:  Solving for Ux, Initial residual = 0.0172793, Final residual = 0.0010899, No Iterations 4
smoothSolver:  Solving for Uy, Initial residual = 0.0161908, Final residual = 0.00110251, No Iterations 4
GAMG:  Solving for p, Initial residual = 0.039803, Final residual = 0.00299926, No Iterations 2
time step continuity errors : sum local = 0.0137053, global = 0.000842237, cumulative = 0.048319
smoothSolver:  Solving for omega, Initial residual = 0.00158389, Final residual = 8.05397e-05, No Iterations 3
smoothSolver:  Solving for k, Initial residual = 0.0259578, Final residual = 0.00215742, No Iterations 3
ExecutionTime = 0.53 s  ClockTime = 1 s

scalarTransport execute: age
smoothSolver:  Solving for age, Initial residual = 0.0370804, Final residual = 0.00370164, No Iterations 10

Time = 44

smoothSolver:  Solving for Ux, Initial residual = 0.0169904, Final residual = 0.00104524, No Iterations 4
smoothSolver:  Solving for Uy, Initial residual = 0.0162407, Final residual = 0.00114178, No Iterations 4
GAMG:  Solving for p, Initial residual = 0.039847, Final residual = 0.00322106, No Iterations 2
time step continuity errors : sum local = 0.014729, global = 0.000788069, cumulative = 0.049107
smoothSolver:  Solving for omega, Initial residual = 0.00156659, Final residual = 7.78028e-05, No Iterations 3
smoothSolver:  Solving for k, Initial residual = 0.0253676, Final residual = 0.00212555, No Iterations 3
ExecutionTime = 0.54 s  ClockTime = 1 s

scalarTransport execute: age
smoothSolver:  Solving for age, Initial residual = 0.0367616, Final residual = 0.0035948, No Iterations 10

Time = 45

smoothSolver:  Solving for Ux, Initial residual = 0.0165249, Final residual = 0.000991007, No Iterations 4
smoothSolver:  Solving for Uy, Initial residual = 0.0162198, Final residual = 0.00117056, No Iterations 4
GAMG:  Solving for p, Initial residual = 0.0398462, Final residual = 0.00337263, No Iterations 2
time step continuity errors : sum local = 0.015433, global = 0.00073312, cumulative = 0.0498401
smoothSolver:  Solving for omega, Initial residual = 0.00158967, Final residual = 7.65455e-05, No Iterations 3
smoothSolver:  Solving for k, Initial residual = 0.0245576, Final residual = 0.00205387, No Iterations 3
ExecutionTime = 0.56 s  ClockTime = 1 s

scalarTransport execute: age
smoothSolver:  Solving for age, Initial residual = 0.0364004, Final residual = 0.00347664, No Iterations 10

Time = 46

smoothSolver:  Solving for Ux, Initial residual = 0.0159285, Final residual = 0.000928225, No Iterations 4
smoothSolver:  Solving for Uy, Initial residual = 0.0161791, Final residual = 0.00118828, No Iterations 4
GAMG:  Solving for p, Initial residual = 0.0395861, Final residual = 0.003337, No Iterations 2
time step continuity errors : sum local = 0.0152707, global = 0.000668856, cumulative = 0.050509
smoothSolver:  Solving for omega, Initial residual = 0.00160264, Final residual = 7.61821e-05, No Iterations 3
smoothSolver:  Solving for k, Initial residual = 0.0236942, Final residual = 0.00195409, No Iterations 3
ExecutionTime = 0.57 s  ClockTime = 1 s

scalarTransport execute: age
smoothSolver:  Solving for age, Initial residual = 0.0359706, Final residual = 0.00335642, No Iterations 10

Time = 47

smoothSolver:  Solving for Ux, Initial residual = 0.0152192, Final residual = 0.000865601, No Iterations 4
smoothSolver:  Solving for Uy, Initial residual = 0.0160846, Final residual = 0.0011817, No Iterations 4
GAMG:  Solving for p, Initial residual = 0.0389484, Final residual = 0.0031999, No Iterations 2
time step continuity errors : sum local = 0.0146188, global = 0.000576388, cumulative = 0.0510854
smoothSolver:  Solving for omega, Initial residual = 0.00159782, Final residual = 7.54894e-05, No Iterations 3
smoothSolver:  Solving for k, Initial residual = 0.0227794, Final residual = 0.0018373, No Iterations 3
ExecutionTime = 0.58 s  ClockTime = 1 s

scalarTransport execute: age
smoothSolver:  Solving for age, Initial residual = 0.035382, Final residual = 0.00322959, No Iterations 10

Time = 48

smoothSolver:  Solving for Ux, Initial residual = 0.0146129, Final residual = 0.00081703, No Iterations 4
smoothSolver:  Solving for Uy, Initial residual = 0.0157244, Final residual = 0.00115488, No Iterations 4
GAMG:  Solving for p, Initial residual = 0.0380899, Final residual = 0.00297771, No Iterations 2
time step continuity errors : sum local = 0.0135433, global = 0.000463272, cumulative = 0.0515487
smoothSolver:  Solving for omega, Initial residual = 0.00156496, Final residual = 7.37342e-05, No Iterations 3
smoothSolver:  Solving for k, Initial residual = 0.0220648, Final residual = 0.00173166, No Iterations 3
ExecutionTime = 0.59 s  ClockTime = 1 s

scalarTransport execute: age
smoothSolver:  Solving for age, Initial residual = 0.0339915, Final residual = 0.00312745, No Iterations 10

Time = 49

smoothSolver:  Solving for Ux, Initial residual = 0.014006, Final residual = 0.000776282, No Iterations 4
smoothSolver:  Solving for Uy, Initial residual = 0.0152635, Final residual = 0.00111321, No Iterations 4
GAMG:  Solving for p, Initial residual = 0.0373517, Final residual = 0.00271923, No Iterations 2
time step continuity errors : sum local = 0.012288, global = 0.000335096, cumulative = 0.0518838
smoothSolver:  Solving for omega, Initial residual = 0.00150085, Final residual = 7.14132e-05, No Iterations 3
smoothSolver:  Solving for k, Initial residual = 0.0215739, Final residual = 0.00163987, No Iterations 3
ExecutionTime = 0.61 s  ClockTime = 1 s

scalarTransport execute: age
smoothSolver:  Solving for age, Initial residual = 0.0324982, Final residual = 0.00303255, No Iterations 10

Time = 50

smoothSolver:  Solving for Ux, Initial residual = 0.0135894, Final residual = 0.000743473, No Iterations 4
smoothSolver:  Solving for Uy, Initial residual = 0.0147658, Final residual = 0.00106038, No Iterations 4
GAMG:  Solving for p, Initial residual = 0.0369382, Final residual = 0.00246443, No Iterations 2
time step continuity errors : sum local = 0.0110407, global = 0.00019623, cumulative = 0.05208
smoothSolver:  Solving for omega, Initial residual = 0.00147785, Final residual = 7.05007e-05, No Iterations 3
smoothSolver:  Solving for k, Initial residual = 0.0209804, Final residual = 0.00155462, No Iterations 3
ExecutionTime = 0.62 s  ClockTime = 1 s

scalarTransport execute: age
smoothSolver:  Solving for age, Initial residual = 0.0306996, Final residual = 0.00293432, No Iterations 10

Time = 51

smoothSolver:  Solving for Ux, Initial residual = 0.0132728, Final residual = 0.00132445, No Iterations 3
smoothSolver:  Solving for Uy, Initial residual = 0.0142706, Final residual = 0.00101819, No Iterations 4
GAMG:  Solving for p, Initial residual = 0.0362258, Final residual = 0.00221173, No Iterations 2
time step continuity errors : sum local = 0.0098132, global = 0.000108186, cumulative = 0.0521882
smoothSolver:  Solving for omega, Initial residual = 0.00144871, Final residual = 7.03969e-05, No Iterations 3
smoothSolver:  Solving for k, Initial residual = 0.0202318, Final residual = 0.00148621, No Iterations 3
ExecutionTime = 0.63 s  ClockTime = 1 s

scalarTransport execute: age
smoothSolver:  Solving for age, Initial residual = 0.028507, Final residual = 0.00282314, No Iterations 10

Time = 52

smoothSolver:  Solving for Ux, Initial residual = 0.0131022, Final residual = 0.00131018, No Iterations 3
smoothSolver:  Solving for Uy, Initial residual = 0.0137779, Final residual = 0.000977479, No Iterations 4
GAMG:  Solving for p, Initial residual = 0.0357449, Final residual = 0.00207479, No Iterations 2
time step continuity errors : sum local = 0.0091298, global = 2.82682e-05, cumulative = 0.0522164
smoothSolver:  Solving for omega, Initial residual = 0.00143717, Final residual = 7.10747e-05, No Iterations 3
smoothSolver:  Solving for k, Initial residual = 0.019572, Final residual = 0.00144303, No Iterations 3
ExecutionTime = 0.64 s  ClockTime = 1 s

scalarTransport execute: age
smoothSolver:  Solving for age, Initial residual = 0.0267294, Final residual = 0.00236772, No Iterations 11

Time = 53

smoothSolver:  Solving for Ux, Initial residual = 0.0128667, Final residual = 0.00127786, No Iterations 3
smoothSolver:  Solving for Uy, Initial residual = 0.0133185, Final residual = 0.000945715, No Iterations 4
GAMG:  Solving for p, Initial residual = 0.0348757, Final residual = 0.00196757, No Iterations 2
time step continuity errors : sum local = 0.00859323, global = -3.86312e-05, cumulative = 0.0521778
smoothSolver:  Solving for omega, Initial residual = 0.00142855, Final residual = 7.20196e-05, No Iterations 3
smoothSolver:  Solving for k, Initial residual = 0.0188759, Final residual = 0.00141295, No Iterations 3
ExecutionTime = 0.65 s  ClockTime = 1 s

scalarTransport execute: age
smoothSolver:  Solving for age, Initial residual = 0.0253142, Final residual = 0.00226991, No Iterations 11

Time = 54

smoothSolver:  Solving for Ux, Initial residual = 0.0126182, Final residual = 0.00123992, No Iterations 3
smoothSolver:  Solving for Uy, Initial residual = 0.0128988, Final residual = 0.000924159, No Iterations 4
GAMG:  Solving for p, Initial residual = 0.0337346, Final residual = 0.0018763, No Iterations 2
time step continuity errors : sum local = 0.00814469, global = -9.62268e-05, cumulative = 0.0520816
smoothSolver:  Solving for omega, Initial residual = 0.00140985, Final residual = 7.23649e-05, No Iterations 3
smoothSolver:  Solving for k, Initial residual = 0.0182937, Final residual = 0.00139511, No Iterations 3
ExecutionTime = 0.66 s  ClockTime = 1 s

scalarTransport execute: age
smoothSolver:  Solving for age, Initial residual = 0.0242147, Final residual = 0.0021799, No Iterations 11

Time = 55

smoothSolver:  Solving for Ux, Initial residual = 0.0123201, Final residual = 0.00120703, No Iterations 3
smoothSolver:  Solving for Uy, Initial residual = 0.012562, Final residual = 0.000904347, No Iterations 4
GAMG:  Solving for p, Initial residual = 0.03244, Final residual = 0.00178873, No Iterations 2
time step continuity errors : sum local = 0.00772898, global = -0.000159004, cumulative = 0.0519226
smoothSolver:  Solving for omega, Initial residual = 0.00139177, Final residual = 7.13875e-05, No Iterations 3
smoothSolver:  Solving for k, Initial residual = 0.0178357, Final residual = 0.00138546, No Iterations 3
ExecutionTime = 0.67 s  ClockTime = 1 s

scalarTransport execute: age
smoothSolver:  Solving for age, Initial residual = 0.0231602, Final residual = 0.00207892, No Iterations 11

Time = 56

smoothSolver:  Solving for Ux, Initial residual = 0.0120332, Final residual = 0.00118287, No Iterations 3
smoothSolver:  Solving for Uy, Initial residual = 0.012211, Final residual = 0.000878276, No Iterations 4
GAMG:  Solving for p, Initial residual = 0.0314126, Final residual = 0.00170509, No Iterations 2
time step continuity errors : sum local = 0.00734964, global = -0.000240832, cumulative = 0.0516817
smoothSolver:  Solving for omega, Initial residual = 0.0013466, Final residual = 6.89209e-05, No Iterations 3
smoothSolver:  Solving for k, Initial residual = 0.0174639, Final residual = 0.00137996, No Iterations 3
ExecutionTime = 0.68 s  ClockTime = 1 s

scalarTransport execute: age
smoothSolver:  Solving for age, Initial residual = 0.0221272, Final residual = 0.00198889, No Iterations 11

Time = 57

smoothSolver:  Solving for Ux, Initial residual = 0.0116906, Final residual = 0.00116807, No Iterations 3
smoothSolver:  Solving for Uy, Initial residual = 0.0118365, Final residual = 0.000846272, No Iterations 4
GAMG:  Solving for p, Initial residual = 0.0306005, Final residual = 0.00161929, No Iterations 2
time step continuity errors : sum local = 0.00697426, global = -0.000348269, cumulative = 0.0513335
smoothSolver:  Solving for omega, Initial residual = 0.00129969, Final residual = 6.55142e-05, No Iterations 3
smoothSolver:  Solving for k, Initial residual = 0.017077, Final residual = 0.00137044, No Iterations 3
ExecutionTime = 0.69 s  ClockTime = 1 s

scalarTransport execute: age
smoothSolver:  Solving for age, Initial residual = 0.0212191, Final residual = 0.0019028, No Iterations 11

Time = 58

smoothSolver:  Solving for Ux, Initial residual = 0.0113893, Final residual = 0.000626474, No Iterations 4
smoothSolver:  Solving for Uy, Initial residual = 0.0115081, Final residual = 0.000811757, No Iterations 4
GAMG:  Solving for p, Initial residual = 0.0305041, Final residual = 0.00162499, No Iterations 2
time step continuity errors : sum local = 0.00700347, global = -0.000481086, cumulative = 0.0508524
smoothSolver:  Solving for omega, Initial residual = 0.0012514, Final residual = 6.28337e-05, No Iterations 3
smoothSolver:  Solving for k, Initial residual = 0.0166959, Final residual = 0.00135057, No Iterations 3
ExecutionTime = 0.71 s  ClockTime = 1 s

scalarTransport execute: age
smoothSolver:  Solving for age, Initial residual = 0.0208092, Final residual = 0.00179595, No Iterations 11

Time = 59

smoothSolver:  Solving for Ux, Initial residual = 0.0109372, Final residual = 0.00108028, No Iterations 3
smoothSolver:  Solving for Uy, Initial residual = 0.0113474, Final residual = 0.000781314, No Iterations 4
GAMG:  Solving for p, Initial residual = 0.0291301, Final residual = 0.00142842, No Iterations 2
time step continuity errors : sum local = 0.00616281, global = -0.00053156, cumulative = 0.0503208
smoothSolver:  Solving for omega, Initial residual = 0.00121242, Final residual = 5.96343e-05, No Iterations 3
smoothSolver:  Solving for k, Initial residual = 0.0162096, Final residual = 0.00131552, No Iterations 3
ExecutionTime = 0.72 s  ClockTime = 1 s

scalarTransport execute: age
smoothSolver:  Solving for age, Initial residual = 0.0200566, Final residual = 0.00197496, No Iterations 10

Time = 60

smoothSolver:  Solving for Ux, Initial residual = 0.0106982, Final residual = 0.00104132, No Iterations 3
smoothSolver:  Solving for Uy, Initial residual = 0.0110132, Final residual = 0.000740082, No Iterations 4
GAMG:  Solving for p, Initial residual = 0.0278386, Final residual = 0.0014085, No Iterations 2
time step continuity errors : sum local = 0.00610283, global = -0.000520478, cumulative = 0.0498004
smoothSolver:  Solving for omega, Initial residual = 0.00117065, Final residual = 5.74454e-05, No Iterations 3
smoothSolver:  Solving for k, Initial residual = 0.015686, Final residual = 0.0012728, No Iterations 3
ExecutionTime = 0.73 s  ClockTime = 1 s

scalarTransport execute: age
smoothSolver:  Solving for age, Initial residual = 0.0196425, Final residual = 0.00189953, No Iterations 10

Time = 61

smoothSolver:  Solving for Ux, Initial residual = 0.0103274, Final residual = 0.000978188, No Iterations 3
smoothSolver:  Solving for Uy, Initial residual = 0.0106225, Final residual = 0.000716531, No Iterations 4
GAMG:  Solving for p, Initial residual = 0.0267661, Final residual = 0.00143391, No Iterations 2
time step continuity errors : sum local = 0.00623908, global = -0.000507359, cumulative = 0.049293
smoothSolver:  Solving for omega, Initial residual = 0.00111818, Final residual = 5.53767e-05, No Iterations 3
smoothSolver:  Solving for k, Initial residual = 0.0152139, Final residual = 0.0012373, No Iterations 3
ExecutionTime = 0.74 s  ClockTime = 1 s

scalarTransport execute: age
smoothSolver:  Solving for age, Initial residual = 0.0192893, Final residual = 0.00184008, No Iterations 10

Time = 62

smoothSolver:  Solving for Ux, Initial residual = 0.00976066, Final residual = 0.000898773, No Iterations 3
smoothSolver:  Solving for Uy, Initial residual = 0.0100759, Final residual = 0.00068403, No Iterations 4
GAMG:  Solving for p, Initial residual = 0.0254467, Final residual = 0.00141993, No Iterations 2
time step continuity errors : sum local = 0.00619949, global = -0.000482923, cumulative = 0.0488101
smoothSolver:  Solving for omega, Initial residual = 0.00105568, Final residual = 5.24371e-05, No Iterations 3
smoothSolver:  Solving for k, Initial residual = 0.0146951, Final residual = 0.00120859, No Iterations 3
ExecutionTime = 0.75 s  ClockTime = 1 s

scalarTransport execute: age
smoothSolver:  Solving for age, Initial residual = 0.0186565, Final residual = 0.00177149, No Iterations 10

Time = 63

smoothSolver:  Solving for Ux, Initial residual = 0.00917925, Final residual = 0.000818754, No Iterations 3
smoothSolver:  Solving for Uy, Initial residual = 0.00942564, Final residual = 0.000640884, No Iterations 4
GAMG:  Solving for p, Initial residual = 0.0238483, Final residual = 0.00139783, No Iterations 2
time step continuity errors : sum local = 0.00611944, global = -0.000453904, cumulative = 0.0483562
smoothSolver:  Solving for omega, Initial residual = 0.000986801, Final residual = 4.87219e-05, No Iterations 3
smoothSolver:  Solving for k, Initial residual = 0.0141675, Final residual = 0.00117729, No Iterations 3
ExecutionTime = 0.76 s  ClockTime = 1 s

scalarTransport execute: age
smoothSolver:  Solving for age, Initial residual = 0.0178538, Final residual = 0.00170316, No Iterations 10

Time = 64

smoothSolver:  Solving for Ux, Initial residual = 0.00860185, Final residual = 0.000748317, No Iterations 3
smoothSolver:  Solving for Uy, Initial residual = 0.00882977, Final residual = 0.000593772, No Iterations 4
GAMG:  Solving for p, Initial residual = 0.0223973, Final residual = 0.00136528, No Iterations 2
time step continuity errors : sum local = 0.00598508, global = -0.000429341, cumulative = 0.0479268
smoothSolver:  Solving for omega, Initial residual = 0.00093045, Final residual = 4.52251e-05, No Iterations 3
smoothSolver:  Solving for k, Initial residual = 0.0136766, Final residual = 0.00113468, No Iterations 3
ExecutionTime = 0.77 s  ClockTime = 1 s

scalarTransport execute: age
smoothSolver:  Solving for age, Initial residual = 0.0169416, Final residual = 0.00164671, No Iterations 10

Time = 65

smoothSolver:  Solving for Ux, Initial residual = 0.00808548, Final residual = 0.000698143, No Iterations 3
smoothSolver:  Solving for Uy, Initial residual = 0.00826325, Final residual = 0.000549663, No Iterations 4
GAMG:  Solving for p, Initial residual = 0.0212217, Final residual = 0.0013053, No Iterations 2
time step continuity errors : sum local = 0.00572042, global = -0.000408857, cumulative = 0.047518
smoothSolver:  Solving for omega, Initial residual = 0.000889476, Final residual = 4.30086e-05, No Iterations 3
smoothSolver:  Solving for k, Initial residual = 0.0131281, Final residual = 0.00107997, No Iterations 3
ExecutionTime = 0.78 s  ClockTime = 1 s

scalarTransport execute: age
smoothSolver:  Solving for age, Initial residual = 0.0164279, Final residual = 0.00163259, No Iterations 10

Time = 66

smoothSolver:  Solving for Ux, Initial residual = 0.00762863, Final residual = 0.000673538, No Iterations 3
smoothSolver:  Solving for Uy, Initial residual = 0.00779321, Final residual = 0.000510987, No Iterations 4
GAMG:  Solving for p, Initial residual = 0.0204686, Final residual = 0.00127564, No Iterations 2
time step continuity errors : sum local = 0.00558072, global = -0.000387993, cumulative = 0.04713
smoothSolver:  Solving for omega, Initial residual = 0.000860862, Final residual = 4.20819e-05, No Iterations 3
smoothSolver:  Solving for k, Initial residual = 0.012678, Final residual = 0.00103483, No Iterations 3
ExecutionTime = 0.78 s  ClockTime = 1 s

scalarTransport execute: age
smoothSolver:  Solving for age, Initial residual = 0.0161327, Final residual = 0.00141287, No Iterations 11

Time = 67

smoothSolver:  Solving for Ux, Initial residual = 0.00725323, Final residual = 0.000662299, No Iterations 3
smoothSolver:  Solving for Uy, Initial residual = 0.00736389, Final residual = 0.000475289, No Iterations 4
GAMG:  Solving for p, Initial residual = 0.0199321, Final residual = 0.0012865, No Iterations 2
time step continuity errors : sum local = 0.00561145, global = -0.000364454, cumulative = 0.0467655
smoothSolver:  Solving for omega, Initial residual = 0.000841023, Final residual = 4.09488e-05, No Iterations 3
smoothSolver:  Solving for k, Initial residual = 0.0123988, Final residual = 0.00100553, No Iterations 3
ExecutionTime = 0.79 s  ClockTime = 1 s

scalarTransport execute: age
smoothSolver:  Solving for age, Initial residual = 0.015808, Final residual = 0.00139969, No Iterations 11

Time = 68

smoothSolver:  Solving for Ux, Initial residual = 0.00696261, Final residual = 0.000653024, No Iterations 3
smoothSolver:  Solving for Uy, Initial residual = 0.00698078, Final residual = 0.000442116, No Iterations 4
GAMG:  Solving for p, Initial residual = 0.0193953, Final residual = 0.00128591, No Iterations 2
time step continuity errors : sum local = 0.00558743, global = -0.000340084, cumulative = 0.0464254
smoothSolver:  Solving for omega, Initial residual = 0.000814639, Final residual = 3.89862e-05, No Iterations 3
smoothSolver:  Solving for k, Initial residual = 0.0121518, Final residual = 0.000978773, No Iterations 3
ExecutionTime = 0.82 s  ClockTime = 1 s

scalarTransport execute: age
smoothSolver:  Solving for age, Initial residual = 0.0154892, Final residual = 0.00137814, No Iterations 11

Time = 69

smoothSolver:  Solving for Ux, Initial residual = 0.00671875, Final residual = 0.000652426, No Iterations 3
smoothSolver:  Solving for Uy, Initial residual = 0.00665344, Final residual = 0.000411449, No Iterations 4
GAMG:  Solving for p, Initial residual = 0.0188717, Final residual = 0.0012779, No Iterations 2
time step continuity errors : sum local = 0.00552776, global = -0.000319244, cumulative = 0.0461062
smoothSolver:  Solving for omega, Initial residual = 0.000778653, Final residual = 3.63484e-05, No Iterations 3
smoothSolver:  Solving for k, Initial residual = 0.011833, Final residual = 0.000943469, No Iterations 3
ExecutionTime = 0.83 s  ClockTime = 1 s

scalarTransport execute: age
smoothSolver:  Solving for age, Initial residual = 0.014902, Final residual = 0.00135343, No Iterations 11

Time = 70

smoothSolver:  Solving for Ux, Initial residual = 0.00648355, Final residual = 0.00064094, No Iterations 3
smoothSolver:  Solving for Uy, Initial residual = 0.00636511, Final residual = 0.000383646, No Iterations 4
GAMG:  Solving for p, Initial residual = 0.018223, Final residual = 0.00127689, No Iterations 2
time step continuity errors : sum local = 0.00549845, global = -0.000307791, cumulative = 0.0457984
smoothSolver:  Solving for omega, Initial residual = 0.000738357, Final residual = 3.37307e-05, No Iterations 3
smoothSolver:  Solving for k, Initial residual = 0.0113834, Final residual = 0.000900851, No Iterations 3
ExecutionTime = 0.84 s  ClockTime = 1 s

scalarTransport execute: age
smoothSolver:  Solving for age, Initial residual = 0.0142387, Final residual = 0.00132591, No Iterations 11

Time = 71

smoothSolver:  Solving for Ux, Initial residual = 0.00624436, Final residual = 0.000352399, No Iterations 4
smoothSolver:  Solving for Uy, Initial residual = 0.00614059, Final residual = 0.000362763, No Iterations 4
GAMG:  Solving for p, Initial residual = 0.0180115, Final residual = 0.00135586, No Iterations 2
time step continuity errors : sum local = 0.0058121, global = -0.000312376, cumulative = 0.045486
smoothSolver:  Solving for omega, Initial residual = 0.000703874, Final residual = 3.16905e-05, No Iterations 3
smoothSolver:  Solving for k, Initial residual = 0.0108656, Final residual = 0.000852751, No Iterations 3
ExecutionTime = 0.85 s  ClockTime = 1 s

scalarTransport execute: age
smoothSolver:  Solving for age, Initial residual = 0.0140488, Final residual = 0.00130862, No Iterations 11

Time = 72

smoothSolver:  Solving for Ux, Initial residual = 0.00591476, Final residual = 0.000590329, No Iterations 3
smoothSolver:  Solving for Uy, Initial residual = 0.00597365, Final residual = 0.000356502, No Iterations 4
GAMG:  Solving for p, Initial residual = 0.017072, Final residual = 0.00114711, No Iterations 2
time step continuity errors : sum local = 0.00489843, global = -0.00032686, cumulative = 0.0451592
smoothSolver:  Solving for omega, Initial residual = 0.000685552, Final residual = 3.09455e-05, No Iterations 3
smoothSolver:  Solving for k, Initial residual = 0.0102314, Final residual = 0.000802452, No Iterations 3
ExecutionTime = 0.86 s  ClockTime = 1 s

scalarTransport execute: age
smoothSolver:  Solving for age, Initial residual = 0.0139256, Final residual = 0.00128643, No Iterations 11

Time = 73

smoothSolver:  Solving for Ux, Initial residual = 0.00564733, Final residual = 0.000322209, No Iterations 4
smoothSolver:  Solving for Uy, Initial residual = 0.00580344, Final residual = 0.000355006, No Iterations 4
GAMG:  Solving for p, Initial residual = 0.0167283, Final residual = 0.00109014, No Iterations 2
time step continuity errors : sum local = 0.00464211, global = -0.000337804, cumulative = 0.0448214
smoothSolver:  Solving for omega, Initial residual = 0.000662349, Final residual = 3.08353e-05, No Iterations 3
smoothSolver:  Solving for k, Initial residual = 0.00969543, Final residual = 0.000757591, No Iterations 3
ExecutionTime = 0.87 s  ClockTime = 1 s

scalarTransport execute: age
smoothSolver:  Solving for age, Initial residual = 0.0139149, Final residual = 0.00126605, No Iterations 11

Time = 74

smoothSolver:  Solving for Ux, Initial residual = 0.00531677, Final residual = 0.00053134, No Iterations 3
smoothSolver:  Solving for Uy, Initial residual = 0.00565611, Final residual = 0.000358153, No Iterations 4
GAMG:  Solving for p, Initial residual = 0.0156673, Final residual = 0.000866497, No Iterations 2
time step continuity errors : sum local = 0.00368135, global = -0.000324526, cumulative = 0.0444968
smoothSolver:  Solving for omega, Initial residual = 0.000632338, Final residual = 3.02968e-05, No Iterations 3
smoothSolver:  Solving for k, Initial residual = 0.00919599, Final residual = 0.000721032, No Iterations 3
ExecutionTime = 0.88 s  ClockTime = 1 s

scalarTransport execute: age
smoothSolver:  Solving for age, Initial residual = 0.0136378, Final residual = 0.00124616, No Iterations 11

Time = 75

smoothSolver:  Solving for Ux, Initial residual = 0.0050811, Final residual = 0.000504829, No Iterations 3
smoothSolver:  Solving for Uy, Initial residual = 0.00549757, Final residual = 0.000354313, No Iterations 4
GAMG:  Solving for p, Initial residual = 0.0148959, Final residual = 0.000794968, No Iterations 2
time step continuity errors : sum local = 0.00337048, global = -0.000289789, cumulative = 0.044207
smoothSolver:  Solving for omega, Initial residual = 0.000597738, Final residual = 2.88248e-05, No Iterations 3
smoothSolver:  Solving for k, Initial residual = 0.00877369, Final residual = 0.000687557, No Iterations 3
ExecutionTime = 0.89 s  ClockTime = 1 s

scalarTransport execute: age
smoothSolver:  Solving for age, Initial residual = 0.0132951, Final residual = 0.00122455, No Iterations 11

Time = 76

smoothSolver:  Solving for Ux, Initial residual = 0.00488486, Final residual = 0.000483873, No Iterations 3
smoothSolver:  Solving for Uy, Initial residual = 0.00529377, Final residual = 0.000341741, No Iterations 4
GAMG:  Solving for p, Initial residual = 0.0144333, Final residual = 0.000786189, No Iterations 2
time step continuity errors : sum local = 0.00332641, global = -0.000260631, cumulative = 0.0439464
smoothSolver:  Solving for omega, Initial residual = 0.000558003, Final residual = 2.68428e-05, No Iterations 3
smoothSolver:  Solving for k, Initial residual = 0.00837328, Final residual = 0.000652865, No Iterations 3
ExecutionTime = 0.9 s  ClockTime = 1 s

scalarTransport execute: age
smoothSolver:  Solving for age, Initial residual = 0.0129026, Final residual = 0.00119415, No Iterations 11

Time = 77

smoothSolver:  Solving for Ux, Initial residual = 0.00472772, Final residual = 0.000464947, No Iterations 3
smoothSolver:  Solving for Uy, Initial residual = 0.00512408, Final residual = 0.000318827, No Iterations 4
GAMG:  Solving for p, Initial residual = 0.0139921, Final residual = 0.000770184, No Iterations 2
time step continuity errors : sum local = 0.00324946, global = -0.000239783, cumulative = 0.0437066
smoothSolver:  Solving for omega, Initial residual = 0.000525086, Final residual = 2.44179e-05, No Iterations 3
smoothSolver:  Solving for k, Initial residual = 0.00795231, Final residual = 0.000613848, No Iterations 3
ExecutionTime = 0.91 s  ClockTime = 1 s

scalarTransport execute: age
smoothSolver:  Solving for age, Initial residual = 0.0125742, Final residual = 0.00114529, No Iterations 11

Time = 78

smoothSolver:  Solving for Ux, Initial residual = 0.00462345, Final residual = 0.000453928, No Iterations 3
smoothSolver:  Solving for Uy, Initial residual = 0.00489827, Final residual = 0.000294818, No Iterations 4
GAMG:  Solving for p, Initial residual = 0.0134936, Final residual = 0.000745562, No Iterations 2
time step continuity errors : sum local = 0.00313585, global = -0.000220793, cumulative = 0.0434858
smoothSolver:  Solving for omega, Initial residual = 0.000497896, Final residual = 2.25307e-05, No Iterations 3
smoothSolver:  Solving for k, Initial residual = 0.00750267, Final residual = 0.000571024, No Iterations 3
ExecutionTime = 0.93 s  ClockTime = 1 s

scalarTransport execute: age
smoothSolver:  Solving for age, Initial residual = 0.0123014, Final residual = 0.00110132, No Iterations 11

Time = 79

smoothSolver:  Solving for Ux, Initial residual = 0.00454055, Final residual = 0.000446418, No Iterations 3
smoothSolver:  Solving for Uy, Initial residual = 0.00471484, Final residual = 0.000278383, No Iterations 4
GAMG:  Solving for p, Initial residual = 0.0130324, Final residual = 0.000740674, No Iterations 2
time step continuity errors : sum local = 0.00310686, global = -0.000201048, cumulative = 0.0432848
smoothSolver:  Solving for omega, Initial residual = 0.000478641, Final residual = 2.19437e-05, No Iterations 3
smoothSolver:  Solving for k, Initial residual = 0.00706649, Final residual = 0.000526428, No Iterations 3
ExecutionTime = 0.94 s  ClockTime = 1 s

scalarTransport execute: age
smoothSolver:  Solving for age, Initial residual = 0.0121325, Final residual = 0.00107412, No Iterations 11

Time = 80

smoothSolver:  Solving for Ux, Initial residual = 0.00443563, Final residual = 0.000433799, No Iterations 3
smoothSolver:  Solving for Uy, Initial residual = 0.00455495, Final residual = 0.000274102, No Iterations 4
GAMG:  Solving for p, Initial residual = 0.0125026, Final residual = 0.00075262, No Iterations 2
time step continuity errors : sum local = 0.00315047, global = -0.000178523, cumulative = 0.0431063
smoothSolver:  Solving for omega, Initial residual = 0.000461574, Final residual = 2.19349e-05, No Iterations 3
smoothSolver:  Solving for k, Initial residual = 0.00668631, Final residual = 0.000488219, No Iterations 3
ExecutionTime = 0.95 s  ClockTime = 1 s

scalarTransport execute: age
smoothSolver:  Solving for age, Initial residual = 0.0118997, Final residual = 0.00104341, No Iterations 11

Time = 81

smoothSolver:  Solving for Ux, Initial residual = 0.0043055, Final residual = 0.000414558, No Iterations 3
smoothSolver:  Solving for Uy, Initial residual = 0.00444397, Final residual = 0.000276255, No Iterations 4
GAMG:  Solving for p, Initial residual = 0.01183, Final residual = 0.000776659, No Iterations 2
time step continuity errors : sum local = 0.00324681, global = -0.000162605, cumulative = 0.0429437
smoothSolver:  Solving for omega, Initial residual = 0.000442858, Final residual = 2.19086e-05, No Iterations 3
smoothSolver:  Solving for k, Initial residual = 0.00638359, Final residual = 0.000456846, No Iterations 3
ExecutionTime = 0.96 s  ClockTime = 1 s

scalarTransport execute: age
smoothSolver:  Solving for age, Initial residual = 0.0114296, Final residual = 0.00101461, No Iterations 11

Time = 82

smoothSolver:  Solving for Ux, Initial residual = 0.00415777, Final residual = 0.000393035, No Iterations 3
smoothSolver:  Solving for Uy, Initial residual = 0.00432369, Final residual = 0.000279124, No Iterations 4
GAMG:  Solving for p, Initial residual = 0.0111239, Final residual = 0.000754573, No Iterations 2
time step continuity errors : sum local = 0.00315218, global = -0.000143891, cumulative = 0.0427998
smoothSolver:  Solving for omega, Initial residual = 0.000417385, Final residual = 2.12352e-05, No Iterations 3
smoothSolver:  Solving for k, Initial residual = 0.00611848, Final residual = 0.000437028, No Iterations 3
ExecutionTime = 0.97 s  ClockTime = 1 s

scalarTransport execute: age
smoothSolver:  Solving for age, Initial residual = 0.0108848, Final residual = 0.000986623, No Iterations 11

Time = 83

smoothSolver:  Solving for Ux, Initial residual = 0.00399902, Final residual = 0.000379264, No Iterations 3
smoothSolver:  Solving for Uy, Initial residual = 0.00419159, Final residual = 0.000275444, No Iterations 4
GAMG:  Solving for p, Initial residual = 0.0105157, Final residual = 0.000727547, No Iterations 2
time step continuity errors : sum local = 0.003039, global = -0.00012289, cumulative = 0.0426769
smoothSolver:  Solving for omega, Initial residual = 0.000394976, Final residual = 2.00358e-05, No Iterations 3
smoothSolver:  Solving for k, Initial residual = 0.00588923, Final residual = 0.000425626, No Iterations 3
ExecutionTime = 0.98 s  ClockTime = 1 s

scalarTransport execute: age
smoothSolver:  Solving for age, Initial residual = 0.0103293, Final residual = 0.000957798, No Iterations 11

Time = 84

smoothSolver:  Solving for Ux, Initial residual = 0.00386235, Final residual = 0.000374191, No Iterations 3
smoothSolver:  Solving for Uy, Initial residual = 0.00403302, Final residual = 0.000265956, No Iterations 4
GAMG:  Solving for p, Initial residual = 0.0100858, Final residual = 0.000710399, No Iterations 2
time step continuity errors : sum local = 0.0029676, global = -0.000101871, cumulative = 0.042575
smoothSolver:  Solving for omega, Initial residual = 0.000378031, Final residual = 1.89019e-05, No Iterations 3
smoothSolver:  Solving for k, Initial residual = 0.0056805, Final residual = 0.000415779, No Iterations 3
ExecutionTime = 0.99 s  ClockTime = 1 s

scalarTransport execute: age
smoothSolver:  Solving for age, Initial residual = 0.00996935, Final residual = 0.000932029, No Iterations 11

Time = 85

smoothSolver:  Solving for Ux, Initial residual = 0.00375558, Final residual = 0.000372365, No Iterations 3
smoothSolver:  Solving for Uy, Initial residual = 0.00386263, Final residual = 0.00025808, No Iterations 4
GAMG:  Solving for p, Initial residual = 0.00971888, Final residual = 0.000714159, No Iterations 2
time step continuity errors : sum local = 0.00298365, global = -8.26064e-05, cumulative = 0.0424924
smoothSolver:  Solving for omega, Initial residual = 0.000373737, Final residual = 1.85746e-05, No Iterations 3
smoothSolver:  Solving for k, Initial residual = 0.00548495, Final residual = 0.000403868, No Iterations 3
ExecutionTime = 1 s  ClockTime = 1 s

scalarTransport execute: age
smoothSolver:  Solving for age, Initial residual = 0.00969733, Final residual = 0.000907012, No Iterations 11

Time = 86

smoothSolver:  Solving for Ux, Initial residual = 0.00363768, Final residual = 0.000205047, No Iterations 4
smoothSolver:  Solving for Uy, Initial residual = 0.00372884, Final residual = 0.000252587, No Iterations 4
GAMG:  Solving for p, Initial residual = 0.00960188, Final residual = 0.000777308, No Iterations 2
time step continuity errors : sum local = 0.00324736, global = -6.37917e-05, cumulative = 0.0424286
smoothSolver:  Solving for omega, Initial residual = 0.000378804, Final residual = 1.8986e-05, No Iterations 3
smoothSolver:  Solving for k, Initial residual = 0.0053474, Final residual = 0.000393368, No Iterations 3
ExecutionTime = 1.01 s  ClockTime = 1 s

scalarTransport execute: age
smoothSolver:  Solving for age, Initial residual = 0.00952249, Final residual = 0.000888749, No Iterations 11

Time = 87

smoothSolver:  Solving for Ux, Initial residual = 0.00346846, Final residual = 0.000193981, No Iterations 4
smoothSolver:  Solving for Uy, Initial residual = 0.00363924, Final residual = 0.000249542, No Iterations 4
GAMG:  Solving for p, Initial residual = 0.00927541, Final residual = 0.000775924, No Iterations 2
time step continuity errors : sum local = 0.00324027, global = -4.48437e-05, cumulative = 0.0423838
smoothSolver:  Solving for omega, Initial residual = 0.000377235, Final residual = 1.90428e-05, No Iterations 3
smoothSolver:  Solving for k, Initial residual = 0.00518388, Final residual = 0.000380377, No Iterations 3
ExecutionTime = 1.03 s  ClockTime = 1 s

scalarTransport execute: age
smoothSolver:  Solving for age, Initial residual = 0.00934186, Final residual = 0.000873672, No Iterations 11

Time = 88

smoothSolver:  Solving for Ux, Initial residual = 0.00329792, Final residual = 0.000329608, No Iterations 3
smoothSolver:  Solving for Uy, Initial residual = 0.00354199, Final residual = 0.000245801, No Iterations 4
GAMG:  Solving for p, Initial residual = 0.00875518, Final residual = 0.000708151, No Iterations 2
time step continuity errors : sum local = 0.0029549, global = -2.39241e-05, cumulative = 0.0423598
smoothSolver:  Solving for omega, Initial residual = 0.000364569, Final residual = 1.85253e-05, No Iterations 3
smoothSolver:  Solving for k, Initial residual = 0.00494758, Final residual = 0.000362889, No Iterations 3
ExecutionTime = 1.04 s  ClockTime = 1 s

scalarTransport execute: age
smoothSolver:  Solving for age, Initial residual = 0.00906954, Final residual = 0.000856686, No Iterations 11

Time = 89

smoothSolver:  Solving for Ux, Initial residual = 0.00316028, Final residual = 0.000175405, No Iterations 4
smoothSolver:  Solving for Uy, Initial residual = 0.00337426, Final residual = 0.000236666, No Iterations 4
GAMG:  Solving for p, Initial residual = 0.00859314, Final residual = 0.000716562, No Iterations 2
time step continuity errors : sum local = 0.00298689, global = -8.32033e-07, cumulative = 0.042359
smoothSolver:  Solving for omega, Initial residual = 0.000347251, Final residual = 1.75253e-05, No Iterations 3
smoothSolver:  Solving for k, Initial residual = 0.00471097, Final residual = 0.000347473, No Iterations 3
ExecutionTime = 1.05 s  ClockTime = 1 s

scalarTransport execute: age
smoothSolver:  Solving for age, Initial residual = 0.00879439, Final residual = 0.000844035, No Iterations 11

Time = 90

smoothSolver:  Solving for Ux, Initial residual = 0.00296508, Final residual = 0.000164287, No Iterations 4
smoothSolver:  Solving for Uy, Initial residual = 0.00322371, Final residual = 0.000222744, No Iterations 4
GAMG:  Solving for p, Initial residual = 0.00823527, Final residual = 0.000684834, No Iterations 2
time step continuity errors : sum local = 0.00285101, global = 2.13352e-05, cumulative = 0.0423803
smoothSolver:  Solving for omega, Initial residual = 0.000326618, Final residual = 1.60685e-05, No Iterations 3
smoothSolver:  Solving for k, Initial residual = 0.00444909, Final residual = 0.000329025, No Iterations 3
ExecutionTime = 1.06 s  ClockTime = 1 s

scalarTransport execute: age
smoothSolver:  Solving for age, Initial residual = 0.00848369, Final residual = 0.000831388, No Iterations 11

Time = 91

smoothSolver:  Solving for Ux, Initial residual = 0.0028085, Final residual = 0.000158423, No Iterations 4
smoothSolver:  Solving for Uy, Initial residual = 0.00306143, Final residual = 0.000211131, No Iterations 4
GAMG:  Solving for p, Initial residual = 0.00794319, Final residual = 0.000661777, No Iterations 2
time step continuity errors : sum local = 0.00275111, global = 3.99009e-05, cumulative = 0.0424202
smoothSolver:  Solving for omega, Initial residual = 0.000312195, Final residual = 1.502e-05, No Iterations 3
smoothSolver:  Solving for k, Initial residual = 0.00417085, Final residual = 0.000305758, No Iterations 3
ExecutionTime = 1.07 s  ClockTime = 1 s

scalarTransport execute: age
smoothSolver:  Solving for age, Initial residual = 0.00825003, Final residual = 0.000820706, No Iterations 11

Time = 92

smoothSolver:  Solving for Ux, Initial residual = 0.00266234, Final residual = 0.000154626, No Iterations 4
smoothSolver:  Solving for Uy, Initial residual = 0.00294322, Final residual = 0.000204951, No Iterations 4
GAMG:  Solving for p, Initial residual = 0.00761868, Final residual = 0.000655235, No Iterations 2
time step continuity errors : sum local = 0.00271959, global = 5.16917e-05, cumulative = 0.0424719
smoothSolver:  Solving for omega, Initial residual = 0.000305297, Final residual = 1.4859e-05, No Iterations 3
smoothSolver:  Solving for k, Initial residual = 0.00389062, Final residual = 0.000282439, No Iterations 3
ExecutionTime = 1.08 s  ClockTime = 1 s

scalarTransport execute: age
smoothSolver:  Solving for age, Initial residual = 0.00810302, Final residual = 0.000712602, No Iterations 12

Time = 93

smoothSolver:  Solving for Ux, Initial residual = 0.00253915, Final residual = 0.000150588, No Iterations 4
smoothSolver:  Solving for Uy, Initial residual = 0.00283159, Final residual = 0.000202531, No Iterations 4
GAMG:  Solving for p, Initial residual = 0.00725453, Final residual = 0.000643952, No Iterations 2
time step continuity errors : sum local = 0.00266849, global = 5.39703e-05, cumulative = 0.0425259
smoothSolver:  Solving for omega, Initial residual = 0.000297623, Final residual = 1.48275e-05, No Iterations 3
smoothSolver:  Solving for k, Initial residual = 0.00362099, Final residual = 0.000262189, No Iterations 3
ExecutionTime = 1.09 s  ClockTime = 1 s

scalarTransport execute: age
smoothSolver:  Solving for age, Initial residual = 0.00801137, Final residual = 0.000705487, No Iterations 12

Time = 94

smoothSolver:  Solving for Ux, Initial residual = 0.00241191, Final residual = 0.000144213, No Iterations 4
smoothSolver:  Solving for Uy, Initial residual = 0.0027287, Final residual = 0.000200568, No Iterations 4
GAMG:  Solving for p, Initial residual = 0.00681815, Final residual = 0.000604638, No Iterations 2
time step continuity errors : sum local = 0.00250202, global = 4.52381e-05, cumulative = 0.0425711
smoothSolver:  Solving for omega, Initial residual = 0.000283213, Final residual = 1.44695e-05, No Iterations 3
smoothSolver:  Solving for k, Initial residual = 0.00336969, Final residual = 0.000245642, No Iterations 3
ExecutionTime = 1.1 s  ClockTime = 2 s

scalarTransport execute: age
smoothSolver:  Solving for age, Initial residual = 0.00781456, Final residual = 0.000693478, No Iterations 12

Time = 95

smoothSolver:  Solving for Ux, Initial residual = 0.00228222, Final residual = 0.000136597, No Iterations 4
smoothSolver:  Solving for Uy, Initial residual = 0.00259384, Final residual = 0.000195707, No Iterations 4
GAMG:  Solving for p, Initial residual = 0.00639514, Final residual = 0.00054425, No Iterations 2
time step continuity errors : sum local = 0.00224957, global = 2.24462e-05, cumulative = 0.0425936
smoothSolver:  Solving for omega, Initial residual = 0.000262967, Final residual = 1.38525e-05, No Iterations 3
smoothSolver:  Solving for k, Initial residual = 0.00317671, Final residual = 0.000232326, No Iterations 3
ExecutionTime = 1.11 s  ClockTime = 2 s

scalarTransport execute: age
smoothSolver:  Solving for age, Initial residual = 0.00753658, Final residual = 0.00067665, No Iterations 12

Time = 96

smoothSolver:  Solving for Ux, Initial residual = 0.00215855, Final residual = 0.000129847, No Iterations 4
smoothSolver:  Solving for Uy, Initial residual = 0.00245356, Final residual = 0.000186287, No Iterations 4
GAMG:  Solving for p, Initial residual = 0.00608196, Final residual = 0.000498149, No Iterations 2
[...]

smoothSolver:  Solving for Ux, Initial residual = 4.53486e-07, Final residual = 4.13782e-08, No Iterations 3
smoothSolver:  Solving for Uy, Initial residual = 4.5649e-07, Final residual = 3.15391e-08, No Iterations 4
GAMG:  Solving for p, Initial residual = 1.47807e-06, Final residual = 1.0619e-07, No Iterations 2
time step continuity errors : sum local = 4.33838e-07, global = -3.76771e-09, cumulative = 0.0397246
smoothSolver:  Solving for omega, Initial residual = 1.14546e-07, Final residual = 5.24272e-09, No Iterations 2
smoothSolver:  Solving for k, Initial residual = 3.31878e-07, Final residual = 2.21853e-08, No Iterations 3
ExecutionTime = 6.16 s  ClockTime = 7 s

scalarTransport execute: age
smoothSolver:  Solving for age, Initial residual = 0.000472928, Final residual = 4.56087e-05, No Iterations 14

Time = 543

smoothSolver:  Solving for Ux, Initial residual = 5.20031e-07, Final residual = 4.05537e-08, No Iterations 3
smoothSolver:  Solving for Uy, Initial residual = 5.29628e-07, Final residual = 3.10891e-08, No Iterations 4
GAMG:  Solving for p, Initial residual = 1.77274e-06, Final residual = 1.30357e-07, No Iterations 2
time step continuity errors : sum local = 5.32569e-07, global = -3.43763e-09, cumulative = 0.0397246
smoothSolver:  Solving for omega, Initial residual = 1.10976e-07, Final residual = 5.39528e-09, No Iterations 2
smoothSolver:  Solving for k, Initial residual = 3.2771e-07, Final residual = 2.20939e-08, No Iterations 3
ExecutionTime = 6.17 s  ClockTime = 7 s

scalarTransport execute: age
smoothSolver:  Solving for age, Initial residual = 0.000471882, Final residual = 4.55278e-05, No Iterations 14

Time = 544

smoothSolver:  Solving for Ux, Initial residual = 4.62221e-07, Final residual = 4.02886e-08, No Iterations 3
smoothSolver:  Solving for Uy, Initial residual = 4.60474e-07, Final residual = 3.06642e-08, No Iterations 4
GAMG:  Solving for p, Initial residual = 1.7226e-06, Final residual = 1.24796e-07, No Iterations 2
time step continuity errors : sum local = 5.09851e-07, global = -3.22445e-09, cumulative = 0.0397246
smoothSolver:  Solving for omega, Initial residual = 1.80119e-07, Final residual = 5.93865e-09, No Iterations 2
smoothSolver:  Solving for k, Initial residual = 3.22716e-07, Final residual = 2.21826e-08, No Iterations 3
ExecutionTime = 6.18 s  ClockTime = 7 s

scalarTransport execute: age
smoothSolver:  Solving for age, Initial residual = 0.000471021, Final residual = 4.54243e-05, No Iterations 14

Time = 545

smoothSolver:  Solving for Ux, Initial residual = 4.3382e-07, Final residual = 3.84731e-08, No Iterations 3
smoothSolver:  Solving for Uy, Initial residual = 4.31747e-07, Final residual = 2.94405e-08, No Iterations 4
GAMG:  Solving for p, Initial residual = 1.39027e-06, Final residual = 1.01512e-07, No Iterations 2
time step continuity errors : sum local = 4.14725e-07, global = -2.99232e-09, cumulative = 0.0397246
smoothSolver:  Solving for omega, Initial residual = 1.05257e-07, Final residual = 4.95416e-09, No Iterations 2
smoothSolver:  Solving for k, Initial residual = 3.16744e-07, Final residual = 2.22231e-08, No Iterations 3
ExecutionTime = 6.19 s  ClockTime = 7 s

scalarTransport execute: age
smoothSolver:  Solving for age, Initial residual = 0.000469632, Final residual = 4.53131e-05, No Iterations 14

Time = 546

smoothSolver:  Solving for Ux, Initial residual = 4.19319e-07, Final residual = 3.74004e-08, No Iterations 3
smoothSolver:  Solving for Uy, Initial residual = 4.16754e-07, Final residual = 2.8635e-08, No Iterations 4
GAMG:  Solving for p, Initial residual = 1.19817e-06, Final residual = 9.06097e-08, No Iterations 2
time step continuity errors : sum local = 3.70184e-07, global = -2.69154e-09, cumulative = 0.0397246
smoothSolver:  Solving for omega, Initial residual = 6.00301e-08, Final residual = 4.50934e-09, No Iterations 2
smoothSolver:  Solving for k, Initial residual = 3.1116e-07, Final residual = 2.20899e-08, No Iterations 3
ExecutionTime = 6.2 s  ClockTime = 7 s

scalarTransport execute: age
smoothSolver:  Solving for age, Initial residual = 0.000468275, Final residual = 4.52091e-05, No Iterations 14

Time = 547

smoothSolver:  Solving for Ux, Initial residual = 4.0938e-07, Final residual = 3.70006e-08, No Iterations 3
smoothSolver:  Solving for Uy, Initial residual = 4.08327e-07, Final residual = 2.83385e-08, No Iterations 4
GAMG:  Solving for p, Initial residual = 1.12295e-06, Final residual = 8.70703e-08, No Iterations 2
time step continuity errors : sum local = 3.55724e-07, global = -2.48321e-09, cumulative = 0.0397246
smoothSolver:  Solving for omega, Initial residual = 4.70617e-08, Final residual = 4.35243e-09, No Iterations 2
smoothSolver:  Solving for k, Initial residual = 3.06983e-07, Final residual = 2.18651e-08, No Iterations 3
ExecutionTime = 6.22 s  ClockTime = 7 s

scalarTransport execute: age
smoothSolver:  Solving for age, Initial residual = 0.000467059, Final residual = 4.51081e-05, No Iterations 14

Time = 548

smoothSolver:  Solving for Ux, Initial residual = 4.04998e-07, Final residual = 3.70002e-08, No Iterations 3
smoothSolver:  Solving for Uy, Initial residual = 4.05114e-07, Final residual = 2.82505e-08, No Iterations 4
GAMG:  Solving for p, Initial residual = 1.04855e-06, Final residual = 8.54489e-08, No Iterations 2
time step continuity errors : sum local = 3.49099e-07, global = -2.42282e-09, cumulative = 0.0397246
smoothSolver:  Solving for omega, Initial residual = 3.83551e-08, Final residual = 4.265e-09, No Iterations 2
smoothSolver:  Solving for k, Initial residual = 3.03325e-07, Final residual = 2.16087e-08, No Iterations 3
ExecutionTime = 6.23 s  ClockTime = 7 s

scalarTransport execute: age
smoothSolver:  Solving for age, Initial residual = 0.000465959, Final residual = 4.50134e-05, No Iterations 14

Time = 549

smoothSolver:  Solving for Ux, Initial residual = 4.02849e-07, Final residual = 3.722e-08, No Iterations 3
smoothSolver:  Solving for Uy, Initial residual = 4.00947e-07, Final residual = 2.80939e-08, No Iterations 4
GAMG:  Solving for p, Initial residual = 1.1186e-06, Final residual = 8.7104e-08, No Iterations 2
time step continuity errors : sum local = 3.55861e-07, global = -2.48178e-09, cumulative = 0.0397246
smoothSolver:  Solving for omega, Initial residual = 4.40464e-08, Final residual = 4.29699e-09, No Iterations 2
smoothSolver:  Solving for k, Initial residual = 3.00243e-07, Final residual = 2.13847e-08, No Iterations 3
ExecutionTime = 6.24 s  ClockTime = 7 s

scalarTransport execute: age
smoothSolver:  Solving for age, Initial residual = 0.000464929, Final residual = 4.49191e-05, No Iterations 14

Time = 550

smoothSolver:  Solving for Ux, Initial residual = 4.00916e-07, Final residual = 3.73008e-08, No Iterations 3
smoothSolver:  Solving for Uy, Initial residual = 3.99359e-07, Final residual = 2.78816e-08, No Iterations 4
GAMG:  Solving for p, Initial residual = 1.14223e-06, Final residual = 8.85736e-08, No Iterations 2
time step continuity errors : sum local = 3.61865e-07, global = -2.64148e-09, cumulative = 0.0397246
smoothSolver:  Solving for omega, Initial residual = 6.63949e-08, Final residual = 4.45707e-09, No Iterations 2
smoothSolver:  Solving for k, Initial residual = 2.97438e-07, Final residual = 2.11342e-08, No Iterations 3
ExecutionTime = 6.25 s  ClockTime = 7 s

scalarTransport execute: age
smoothSolver:  Solving for age, Initial residual = 0.000463974, Final residual = 4.48263e-05, No Iterations 14

Time = 551

smoothSolver:  Solving for Ux, Initial residual = 3.93291e-07, Final residual = 3.6992e-08, No Iterations 3
smoothSolver:  Solving for Uy, Initial residual = 3.89691e-07, Final residual = 2.74877e-08, No Iterations 4
GAMG:  Solving for p, Initial residual = 1.07312e-06, Final residual = 8.42707e-08, No Iterations 2
time step continuity errors : sum local = 3.44286e-07, global = -2.82603e-09, cumulative = 0.0397246
smoothSolver:  Solving for omega, Initial residual = 4.68042e-08, Final residual = 4.12602e-09, No Iterations 2
smoothSolver:  Solving for k, Initial residual = 2.94304e-07, Final residual = 2.08178e-08, No Iterations 3
ExecutionTime = 6.26 s  ClockTime = 7 s

scalarTransport execute: age
smoothSolver:  Solving for age, Initial residual = 0.000462995, Final residual = 4.47287e-05, No Iterations 14

Time = 552

smoothSolver:  Solving for Ux, Initial residual = 3.88503e-07, Final residual = 3.66684e-08, No Iterations 3
smoothSolver:  Solving for Uy, Initial residual = 3.86705e-07, Final residual = 2.71258e-08, No Iterations 4
GAMG:  Solving for p, Initial residual = 1.05746e-06, Final residual = 8.29544e-08, No Iterations 2
time step continuity errors : sum local = 3.38908e-07, global = -2.96411e-09, cumulative = 0.0397246
smoothSolver:  Solving for omega, Initial residual = 4.4392e-08, Final residual = 4.05975e-09, No Iterations 2
smoothSolver:  Solving for k, Initial residual = 2.91138e-07, Final residual = 2.04248e-08, No Iterations 3
ExecutionTime = 6.27 s  ClockTime = 7 s

scalarTransport execute: age
smoothSolver:  Solving for age, Initial residual = 0.000462013, Final residual = 4.46368e-05, No Iterations 14

Time = 553

smoothSolver:  Solving for Ux, Initial residual = 4.14904e-07, Final residual = 3.65025e-08, No Iterations 3
smoothSolver:  Solving for Uy, Initial residual = 4.0847e-07, Final residual = 2.6885e-08, No Iterations 4
GAMG:  Solving for p, Initial residual = 1.49938e-06, Final residual = 1.09857e-07, No Iterations 2
time step continuity errors : sum local = 4.48817e-07, global = -3.0494e-09, cumulative = 0.0397246
smoothSolver:  Solving for omega, Initial residual = 9.06979e-08, Final residual = 4.58792e-09, No Iterations 2
smoothSolver:  Solving for k, Initial residual = 2.90278e-07, Final residual = 2.01296e-08, No Iterations 3
ExecutionTime = 6.28 s  ClockTime = 7 s

scalarTransport execute: age
smoothSolver:  Solving for age, Initial residual = 0.000461254, Final residual = 4.45574e-05, No Iterations 14

Time = 554

smoothSolver:  Solving for Ux, Initial residual = 4.03309e-07, Final residual = 3.61255e-08, No Iterations 3
smoothSolver:  Solving for Uy, Initial residual = 4.02478e-07, Final residual = 2.65312e-08, No Iterations 4
GAMG:  Solving for p, Initial residual = 1.43184e-06, Final residual = 1.05805e-07, No Iterations 2
time step continuity errors : sum local = 4.32262e-07, global = -3.19525e-09, cumulative = 0.0397246
smoothSolver:  Solving for omega, Initial residual = 1.47074e-07, Final residual = 4.86811e-09, No Iterations 2
smoothSolver:  Solving for k, Initial residual = 2.86464e-07, Final residual = 1.95607e-08, No Iterations 3
ExecutionTime = 6.29 s  ClockTime = 7 s

scalarTransport execute: age
smoothSolver:  Solving for age, Initial residual = 0.000460732, Final residual = 4.44695e-05, No Iterations 14

Time = 555

smoothSolver:  Solving for Ux, Initial residual = 3.80614e-07, Final residual = 3.4489e-08, No Iterations 3
smoothSolver:  Solving for Uy, Initial residual = 3.80804e-07, Final residual = 2.5783e-08, No Iterations 4
GAMG:  Solving for p, Initial residual = 1.12457e-06, Final residual = 8.64925e-08, No Iterations 2
time step continuity errors : sum local = 3.53363e-07, global = -3.1734e-09, cumulative = 0.0397246
smoothSolver:  Solving for omega, Initial residual = 9.82906e-08, Final residual = 4.24181e-09, No Iterations 2
smoothSolver:  Solving for k, Initial residual = 2.80632e-07, Final residual = 1.88778e-08, No Iterations 3
ExecutionTime = 6.31 s  ClockTime = 7 s

scalarTransport execute: age
smoothSolver:  Solving for age, Initial residual = 0.000459632, Final residual = 4.4368e-05, No Iterations 14

Time = 556

smoothSolver:  Solving for Ux, Initial residual = 3.71403e-07, Final residual = 3.34408e-08, No Iterations 3
smoothSolver:  Solving for Uy, Initial residual = 3.66262e-07, Final residual = 2.53442e-08, No Iterations 4
GAMG:  Solving for p, Initial residual = 1.06324e-06, Final residual = 8.10279e-08, No Iterations 2
time step continuity errors : sum local = 3.31038e-07, global = -2.93602e-09, cumulative = 0.0397246
smoothSolver:  Solving for omega, Initial residual = 6.27555e-08, Final residual = 3.89641e-09, No Iterations 2
smoothSolver:  Solving for k, Initial residual = 2.74448e-07, Final residual = 1.84922e-08, No Iterations 3
ExecutionTime = 6.32 s  ClockTime = 7 s

scalarTransport execute: age
smoothSolver:  Solving for age, Initial residual = 0.000458396, Final residual = 4.42652e-05, No Iterations 14

Time = 557

smoothSolver:  Solving for Ux, Initial residual = 3.71101e-07, Final residual = 3.29833e-08, No Iterations 3
smoothSolver:  Solving for Uy, Initial residual = 3.75224e-07, Final residual = 2.50703e-08, No Iterations 4
GAMG:  Solving for p, Initial residual = 1.24446e-06, Final residual = 9.63101e-08, No Iterations 2
time step continuity errors : sum local = 3.93472e-07, global = -2.68409e-09, cumulative = 0.0397245
smoothSolver:  Solving for omega, Initial residual = 9.17309e-08, Final residual = 4.37747e-09, No Iterations 2
smoothSolver:  Solving for k, Initial residual = 2.69342e-07, Final residual = 1.84712e-08, No Iterations 3
ExecutionTime = 6.33 s  ClockTime = 7 s

scalarTransport execute: age
smoothSolver:  Solving for age, Initial residual = 0.000457448, Final residual = 4.41835e-05, No Iterations 14

Time = 558

smoothSolver:  Solving for Ux, Initial residual = 3.69745e-07, Final residual = 3.25029e-08, No Iterations 3
smoothSolver:  Solving for Uy, Initial residual = 3.72425e-07, Final residual = 2.45336e-08, No Iterations 4
GAMG:  Solving for p, Initial residual = 1.33188e-06, Final residual = 1.01535e-07, No Iterations 2
time step continuity errors : sum local = 4.14819e-07, global = -2.55246e-09, cumulative = 0.0397245
smoothSolver:  Solving for omega, Initial residual = 1.06364e-07, Final residual = 4.64119e-09, No Iterations 2
smoothSolver:  Solving for k, Initial residual = 2.63832e-07, Final residual = 1.85222e-08, No Iterations 3
ExecutionTime = 6.34 s  ClockTime = 7 s

scalarTransport execute: age
smoothSolver:  Solving for age, Initial residual = 0.000456671, Final residual = 4.40971e-05, No Iterations 14

Time = 559

smoothSolver:  Solving for Ux, Initial residual = 3.57886e-07, Final residual = 3.11177e-08, No Iterations 3
smoothSolver:  Solving for Uy, Initial residual = 3.62718e-07, Final residual = 2.35518e-08, No Iterations 4
GAMG:  Solving for p, Initial residual = 1.19802e-06, Final residual = 8.7846e-08, No Iterations 2
time step continuity errors : sum local = 3.58893e-07, global = -2.43098e-09, cumulative = 0.0397245
smoothSolver:  Solving for omega, Initial residual = 1.07585e-07, Final residual = 4.38747e-09, No Iterations 2
smoothSolver:  Solving for k, Initial residual = 2.56807e-07, Final residual = 1.83143e-08, No Iterations 3
ExecutionTime = 6.35 s  ClockTime = 7 s

scalarTransport execute: age
smoothSolver:  Solving for age, Initial residual = 0.000455827, Final residual = 4.39998e-05, No Iterations 14

Time = 560

smoothSolver:  Solving for Ux, Initial residual = 3.52711e-07, Final residual = 3.02718e-08, No Iterations 3
smoothSolver:  Solving for Uy, Initial residual = 3.50514e-07, Final residual = 2.28447e-08, No Iterations 4
GAMG:  Solving for p, Initial residual = 1.07926e-06, Final residual = 8.19339e-08, No Iterations 2
time step continuity errors : sum local = 3.34739e-07, global = -2.25345e-09, cumulative = 0.0397245
smoothSolver:  Solving for omega, Initial residual = 1.1374e-07, Final residual = 4.21124e-09, No Iterations 2
smoothSolver:  Solving for k, Initial residual = 2.51309e-07, Final residual = 1.80143e-08, No Iterations 3
ExecutionTime = 6.36 s  ClockTime = 7 s

scalarTransport execute: age
smoothSolver:  Solving for age, Initial residual = 0.00045478, Final residual = 4.39034e-05, No Iterations 14

Time = 561

smoothSolver:  Solving for Ux, Initial residual = 3.49405e-07, Final residual = 3.0135e-08, No Iterations 3
smoothSolver:  Solving for Uy, Initial residual = 3.55353e-07, Final residual = 2.29004e-08, No Iterations 4
GAMG:  Solving for p, Initial residual = 1.30134e-06, Final residual = 9.48049e-08, No Iterations 2
time step continuity errors : sum local = 3.87323e-07, global = -2.11921e-09, cumulative = 0.0397245
smoothSolver:  Solving for omega, Initial residual = 8.60892e-08, Final residual = 4.22606e-09, No Iterations 2
smoothSolver:  Solving for k, Initial residual = 2.48491e-07, Final residual = 1.78384e-08, No Iterations 3
ExecutionTime = 6.37 s  ClockTime = 7 s

scalarTransport execute: age
smoothSolver:  Solving for age, Initial residual = 0.000453718, Final residual = 4.38206e-05, No Iterations 14

Time = 562

smoothSolver:  Solving for Ux, Initial residual = 3.46092e-07, Final residual = 3.06373e-08, No Iterations 3
smoothSolver:  Solving for Uy, Initial residual = 3.50543e-07, Final residual = 2.29151e-08, No Iterations 4
GAMG:  Solving for p, Initial residual = 1.32815e-06, Final residual = 9.57408e-08, No Iterations 2
time step continuity errors : sum local = 3.91147e-07, global = -2.1005e-09, cumulative = 0.0397245
smoothSolver:  Solving for omega, Initial residual = 8.63562e-08, Final residual = 4.24538e-09, No Iterations 2
smoothSolver:  Solving for k, Initial residual = 2.4604e-07, Final residual = 1.76573e-08, No Iterations 3
ExecutionTime = 6.38 s  ClockTime = 7 s

scalarTransport execute: age
smoothSolver:  Solving for age, Initial residual = 0.00045288, Final residual = 4.3738e-05, No Iterations 14

Time = 563

smoothSolver:  Solving for Ux, Initial residual = 3.44671e-07, Final residual = 3.01134e-08, No Iterations 3
smoothSolver:  Solving for Uy, Initial residual = 3.48777e-07, Final residual = 2.25487e-08, No Iterations 4
GAMG:  Solving for p, Initial residual = 1.28464e-06, Final residual = 9.13603e-08, No Iterations 2
time step continuity errors : sum local = 3.7325e-07, global = -2.0137e-09, cumulative = 0.0397245
smoothSolver:  Solving for omega, Initial residual = 9.21339e-08, Final residual = 4.23203e-09, No Iterations 2
smoothSolver:  Solving for k, Initial residual = 2.43289e-07, Final residual = 1.74163e-08, No Iterations 3
ExecutionTime = 6.4 s  ClockTime = 7 s

scalarTransport execute: age
smoothSolver:  Solving for age, Initial residual = 0.000452148, Final residual = 4.36483e-05, No Iterations 14

Time = 564

smoothSolver:  Solving for Ux, Initial residual = 3.35169e-07, Final residual = 2.99922e-08, No Iterations 3
smoothSolver:  Solving for Uy, Initial residual = 3.31936e-07, Final residual = 2.22048e-08, No Iterations 4
GAMG:  Solving for p, Initial residual = 1.15336e-06, Final residual = 8.64322e-08, No Iterations 2
time step continuity errors : sum local = 3.53117e-07, global = -1.827e-09, cumulative = 0.0397245
smoothSolver:  Solving for omega, Initial residual = 1.19668e-07, Final residual = 4.33715e-09, No Iterations 2
smoothSolver:  Solving for k, Initial residual = 2.4031e-07, Final residual = 1.71139e-08, No Iterations 3
ExecutionTime = 6.41 s  ClockTime = 7 s

scalarTransport execute: age
smoothSolver:  Solving for age, Initial residual = 0.00045122, Final residual = 4.35538e-05, No Iterations 14

Time = 565

smoothSolver:  Solving for Ux, Initial residual = 3.23673e-07, Final residual = 2.95121e-08, No Iterations 3
smoothSolver:  Solving for Uy, Initial residual = 3.22306e-07, Final residual = 2.19029e-08, No Iterations 4
GAMG:  Solving for p, Initial residual = 9.12986e-07, Final residual = 6.83694e-08, No Iterations 2
time step continuity errors : sum local = 2.79322e-07, global = -1.57287e-09, cumulative = 0.0397245
smoothSolver:  Solving for omega, Initial residual = 8.52302e-08, Final residual = 3.84856e-09, No Iterations 2
smoothSolver:  Solving for k, Initial residual = 2.35918e-07, Final residual = 1.66549e-08, No Iterations 3
ExecutionTime = 6.42 s  ClockTime = 7 s


SIMPLE solution converged in 565 iterations

scalarTransport execute: age
smoothSolver:  Solving for age, Initial residual = 0.00045006, Final residual = 4.34566e-05, No Iterations 14

End

