/*---------------------------------------------------------------------------*\
| =========                 |                                                 |
| \\      /  F ield         | OpenFOAM: The Open Source CFD Toolbox           |
|  \\    /   O peration     | Version:  v2012                                 |
|   \\  /    A nd           | Website:  www.openfoam.com                      |
|    \\/     M anipulation  |                                                 |
\*---------------------------------------------------------------------------*/
Build  : _7bdb509494-20201222 OPENFOAM=2012
Arch   : "LSB;label=32;scalar=64"
Exec   : simpleFoam
Date   : Feb 23 2023
Time   : 01:56:01
Host   : johnsDesktop
PID    : 18060
I/O    : uncollated
Case   : /home/john/of_runs/cases/0_52_3-00700_9
nProcs : 1
trapFpe: Floating point exception trapping enabled (FOAM_SIGFPE).
fileModificationChecking : Monitoring run-time modified files using timeStampMaster (fileModificationSkew 5, maxFileModificationPolls 20)
allowSystemOperations : Allowing user-supplied system call operations

// * * * * * * * * * * * * * * * * * * * * * * * * * * * * * * * * * * * * * //
Create time

Create mesh for time = 0


SIMPLE: convergence criteria
    field p	 tolerance 1e-06
    field U	 tolerance 1e-06
    field "(k|epsilon|omega|f|v2|age)"	 tolerance 1e-05

Reading field p

Reading field U

Reading/calculating face flux field phi

Selecting incompressible transport model Newtonian
Selecting turbulence model type RAS
Selecting RAS turbulence model kOmegaSST
Selecting patchDistMethod meshWave
RAS
{
    RASModel        kOmegaSST;
    turbulence      on;
    printCoeffs     on;
    alphaK1         0.85;
    alphaK2         1;
    alphaOmega1     0.5;
    alphaOmega2     0.856;
    gamma1          0.555556;
    gamma2          0.44;
    beta1           0.075;
    beta2           0.0828;
    betaStar        0.09;
    a1              0.31;
    b1              1;
    c1              10;
    F3              false;
    decayControl    false;
    kInf            0;
    omegaInf        0;
}

No MRF models present

No finite volume options present

Starting time loop

Selecting finite volume options type scalarSemiImplicitSource
    Source: unitySource
    - selecting all cells
    - selected 6057 cell(s) with volume 0.03174
Time = 1

smoothSolver:  Solving for Ux, Initial residual = 0, Final residual = 0, No Iterations 0
smoothSolver:  Solving for Uy, Initial residual = 1, Final residual = 0.0858531, No Iterations 2
GAMG:  Solving for p, Initial residual = 1, Final residual = 0.0544056, No Iterations 16
time step continuity errors : sum local = 0.0034282, global = -0.000445131, cumulative = -0.000445131
smoothSolver:  Solving for omega, Initial residual = 0.275596, Final residual = 0.0117895, No Iterations 3
smoothSolver:  Solving for k, Initial residual = 1, Final residual = 0.0786967, No Iterations 3
ExecutionTime = 0.05 s  ClockTime = 0 s

scalarTransport execute: age
smoothSolver:  Solving for age, Initial residual = 1, Final residual = 0.089808, No Iterations 5

Time = 2

smoothSolver:  Solving for Ux, Initial residual = 0.534106, Final residual = 0.0451634, No Iterations 6
smoothSolver:  Solving for Uy, Initial residual = 0.274366, Final residual = 0.0198368, No Iterations 6
GAMG:  Solving for p, Initial residual = 0.0513294, Final residual = 0.00439292, No Iterations 4
time step continuity errors : sum local = 0.0508367, global = 0.00436411, cumulative = 0.00391897
smoothSolver:  Solving for omega, Initial residual = 0.251237, Final residual = 0.0239691, No Iterations 3
smoothSolver:  Solving for k, Initial residual = 0.602329, Final residual = 0.0560969, No Iterations 4
ExecutionTime = 0.06 s  ClockTime = 0 s

scalarTransport execute: age
smoothSolver:  Solving for age, Initial residual = 0.582556, Final residual = 0.047844, No Iterations 6

Time = 3

smoothSolver:  Solving for Ux, Initial residual = 0.233485, Final residual = 0.0176043, No Iterations 6
smoothSolver:  Solving for Uy, Initial residual = 0.099196, Final residual = 0.00936637, No Iterations 5
GAMG:  Solving for p, Initial residual = 0.0580067, Final residual = 0.00445377, No Iterations 7
time step continuity errors : sum local = 0.0253971, global = 0.00209937, cumulative = 0.00601834
smoothSolver:  Solving for omega, Initial residual = 0.236768, Final residual = 0.0226466, No Iterations 4
smoothSolver:  Solving for k, Initial residual = 0.506469, Final residual = 0.0378463, No Iterations 5
ExecutionTime = 0.08 s  ClockTime = 0 s

scalarTransport execute: age
smoothSolver:  Solving for age, Initial residual = 0.458817, Final residual = 0.0445282, No Iterations 18

Time = 4

smoothSolver:  Solving for Ux, Initial residual = 0.112542, Final residual = 0.00907643, No Iterations 4
smoothSolver:  Solving for Uy, Initial residual = 0.0597921, Final residual = 0.00445177, No Iterations 5
GAMG:  Solving for p, Initial residual = 0.0955718, Final residual = 0.00656212, No Iterations 3
time step continuity errors : sum local = 0.0176664, global = 0.00143399, cumulative = 0.00745234
smoothSolver:  Solving for omega, Initial residual = 0.137517, Final residual = 0.00940573, No Iterations 5
smoothSolver:  Solving for k, Initial residual = 0.435714, Final residual = 0.0368851, No Iterations 5
ExecutionTime = 0.09 s  ClockTime = 0 s

scalarTransport execute: age
smoothSolver:  Solving for age, Initial residual = 0.224265, Final residual = 0.0212865, No Iterations 4

Time = 5

smoothSolver:  Solving for Ux, Initial residual = 0.0757675, Final residual = 0.0070574, No Iterations 5
smoothSolver:  Solving for Uy, Initial residual = 0.0327551, Final residual = 0.00239607, No Iterations 5
GAMG:  Solving for p, Initial residual = 0.0827716, Final residual = 0.00430055, No Iterations 2
time step continuity errors : sum local = 0.0104255, global = 0.00122023, cumulative = 0.00867256
smoothSolver:  Solving for omega, Initial residual = 0.0953685, Final residual = 0.00721224, No Iterations 5
smoothSolver:  Solving for k, Initial residual = 0.341714, Final residual = 0.0313355, No Iterations 5
ExecutionTime = 0.1 s  ClockTime = 0 s

scalarTransport execute: age
smoothSolver:  Solving for age, Initial residual = 0.195469, Final residual = 0.0156376, No Iterations 4

Time = 6

smoothSolver:  Solving for Ux, Initial residual = 0.0589147, Final residual = 0.00434434, No Iterations 6
smoothSolver:  Solving for Uy, Initial residual = 0.0276008, Final residual = 0.00230931, No Iterations 5
GAMG:  Solving for p, Initial residual = 0.0675107, Final residual = 0.00432616, No Iterations 2
time step continuity errors : sum local = 0.0102472, global = 0.00024913, cumulative = 0.0089217
smoothSolver:  Solving for omega, Initial residual = 0.0737422, Final residual = 0.00599968, No Iterations 5
smoothSolver:  Solving for k, Initial residual = 0.273252, Final residual = 0.0266272, No Iterations 5
ExecutionTime = 0.11 s  ClockTime = 0 s

scalarTransport execute: age
smoothSolver:  Solving for age, Initial residual = 0.163631, Final residual = 0.0138776, No Iterations 4

Time = 7

smoothSolver:  Solving for Ux, Initial residual = 0.0514268, Final residual = 0.00388995, No Iterations 6
smoothSolver:  Solving for Uy, Initial residual = 0.0222694, Final residual = 0.00196252, No Iterations 5
GAMG:  Solving for p, Initial residual = 0.0533621, Final residual = 0.00389318, No Iterations 3
time step continuity errors : sum local = 0.00937377, global = -0.000261093, cumulative = 0.0086606
smoothSolver:  Solving for omega, Initial residual = 0.055593, Final residual = 0.00484674, No Iterations 5
smoothSolver:  Solving for k, Initial residual = 0.226349, Final residual = 0.014598, No Iterations 6
ExecutionTime = 0.12 s  ClockTime = 0 s

scalarTransport execute: age
smoothSolver:  Solving for age, Initial residual = 0.136265, Final residual = 0.0134038, No Iterations 3

Time = 8

smoothSolver:  Solving for Ux, Initial residual = 0.0355497, Final residual = 0.00329599, No Iterations 5
smoothSolver:  Solving for Uy, Initial residual = 0.0210123, Final residual = 0.00199464, No Iterations 5
GAMG:  Solving for p, Initial residual = 0.0424312, Final residual = 0.00386517, No Iterations 2
time step continuity errors : sum local = 0.0100842, global = -0.000510291, cumulative = 0.00815031
smoothSolver:  Solving for omega, Initial residual = 0.0450291, Final residual = 0.00405382, No Iterations 5
smoothSolver:  Solving for k, Initial residual = 0.192919, Final residual = 0.0129068, No Iterations 6
ExecutionTime = 0.14 s  ClockTime = 0 s

scalarTransport execute: age
smoothSolver:  Solving for age, Initial residual = 0.122597, Final residual = 0.0103559, No Iterations 4

Time = 9

smoothSolver:  Solving for Ux, Initial residual = 0.0294338, Final residual = 0.00289473, No Iterations 5
smoothSolver:  Solving for Uy, Initial residual = 0.0198745, Final residual = 0.00185731, No Iterations 5
GAMG:  Solving for p, Initial residual = 0.0348753, Final residual = 0.00294132, No Iterations 2
time step continuity errors : sum local = 0.00813399, global = -0.000628579, cumulative = 0.00752173
smoothSolver:  Solving for omega, Initial residual = 0.0368921, Final residual = 0.00342791, No Iterations 5
smoothSolver:  Solving for k, Initial residual = 0.167459, Final residual = 0.01154, No Iterations 6
ExecutionTime = 0.15 s  ClockTime = 0 s

scalarTransport execute: age
smoothSolver:  Solving for age, Initial residual = 0.102078, Final residual = 0.0076423, No Iterations 4

Time = 10

smoothSolver:  Solving for Ux, Initial residual = 0.0279001, Final residual = 0.00184547, No Iterations 6
smoothSolver:  Solving for Uy, Initial residual = 0.0178581, Final residual = 0.00168242, No Iterations 5
GAMG:  Solving for p, Initial residual = 0.0289579, Final residual = 0.00136149, No Iterations 2
time step continuity errors : sum local = 0.00394061, global = -0.000531443, cumulative = 0.00699029
smoothSolver:  Solving for omega, Initial residual = 0.0308539, Final residual = 0.00293918, No Iterations 5
smoothSolver:  Solving for k, Initial residual = 0.14751, Final residual = 0.0104244, No Iterations 6
ExecutionTime = 0.16 s  ClockTime = 0 s

scalarTransport execute: age
smoothSolver:  Solving for age, Initial residual = 0.0855252, Final residual = 0.00708313, No Iterations 3

Time = 11

smoothSolver:  Solving for Ux, Initial residual = 0.026443, Final residual = 0.00180217, No Iterations 6
smoothSolver:  Solving for Uy, Initial residual = 0.0168832, Final residual = 0.00167873, No Iterations 5
GAMG:  Solving for p, Initial residual = 0.0251014, Final residual = 0.000920663, No Iterations 2
time step continuity errors : sum local = 0.0027124, global = -0.000390185, cumulative = 0.00660011
smoothSolver:  Solving for omega, Initial residual = 0.0258624, Final residual = 0.00252302, No Iterations 5
smoothSolver:  Solving for k, Initial residual = 0.131713, Final residual = 0.00949324, No Iterations 6
ExecutionTime = 0.17 s  ClockTime = 0 s

scalarTransport execute: age
smoothSolver:  Solving for age, Initial residual = 0.0741788, Final residual = 0.0063182, No Iterations 3

Time = 12

smoothSolver:  Solving for Ux, Initial residual = 0.025143, Final residual = 0.00173965, No Iterations 6
smoothSolver:  Solving for Uy, Initial residual = 0.0165068, Final residual = 0.00112823, No Iterations 6
GAMG:  Solving for p, Initial residual = 0.0228267, Final residual = 0.000931456, No Iterations 2
time step continuity errors : sum local = 0.00276023, global = -0.000294278, cumulative = 0.00630583
smoothSolver:  Solving for omega, Initial residual = 0.0221358, Final residual = 0.00218963, No Iterations 5
smoothSolver:  Solving for k, Initial residual = 0.118762, Final residual = 0.00870283, No Iterations 6
ExecutionTime = 0.18 s  ClockTime = 0 s

scalarTransport execute: age
smoothSolver:  Solving for age, Initial residual = 0.0664587, Final residual = 0.0058892, No Iterations 3

Time = 13

smoothSolver:  Solving for Ux, Initial residual = 0.0242619, Final residual = 0.00169971, No Iterations 6
smoothSolver:  Solving for Uy, Initial residual = 0.0159983, Final residual = 0.00112156, No Iterations 6
GAMG:  Solving for p, Initial residual = 0.0212139, Final residual = 0.000967751, No Iterations 2
time step continuity errors : sum local = 0.00288188, global = -0.000188052, cumulative = 0.00611778
smoothSolver:  Solving for omega, Initial residual = 0.0190874, Final residual = 0.00122239, No Iterations 6
smoothSolver:  Solving for k, Initial residual = 0.10771, Final residual = 0.00800689, No Iterations 6
ExecutionTime = 0.19 s  ClockTime = 0 s

scalarTransport execute: age
smoothSolver:  Solving for age, Initial residual = 0.0604079, Final residual = 0.0055624, No Iterations 3

Time = 14

smoothSolver:  Solving for Ux, Initial residual = 0.0234707, Final residual = 0.00165927, No Iterations 6
smoothSolver:  Solving for Uy, Initial residual = 0.015722, Final residual = 0.00112138, No Iterations 6
GAMG:  Solving for p, Initial residual = 0.0201007, Final residual = 0.000962235, No Iterations 2
time step continuity errors : sum local = 0.00287185, global = -8.96089e-05, cumulative = 0.00602817
smoothSolver:  Solving for omega, Initial residual = 0.0164459, Final residual = 0.00106781, No Iterations 6
smoothSolver:  Solving for k, Initial residual = 0.0982421, Final residual = 0.00739587, No Iterations 6
ExecutionTime = 0.2 s  ClockTime = 0 s

scalarTransport execute: age
smoothSolver:  Solving for age, Initial residual = 0.0553326, Final residual = 0.00516713, No Iterations 3

Time = 15

smoothSolver:  Solving for Ux, Initial residual = 0.0227894, Final residual = 0.00161821, No Iterations 6
smoothSolver:  Solving for Uy, Initial residual = 0.0155445, Final residual = 0.00112092, No Iterations 6
GAMG:  Solving for p, Initial residual = 0.0191525, Final residual = 0.00093837, No Iterations 2
time step continuity errors : sum local = 0.00279984, global = 1.36045e-05, cumulative = 0.00604177
smoothSolver:  Solving for omega, Initial residual = 0.0143207, Final residual = 0.000939154, No Iterations 6
smoothSolver:  Solving for k, Initial residual = 0.090208, Final residual = 0.00686321, No Iterations 6
ExecutionTime = 0.22 s  ClockTime = 0 s

scalarTransport execute: age
smoothSolver:  Solving for age, Initial residual = 0.0511234, Final residual = 0.00487293, No Iterations 3

Time = 16

smoothSolver:  Solving for Ux, Initial residual = 0.0220554, Final residual = 0.00157463, No Iterations 6
smoothSolver:  Solving for Uy, Initial residual = 0.0154401, Final residual = 0.00112147, No Iterations 6
GAMG:  Solving for p, Initial residual = 0.0183112, Final residual = 0.000911217, No Iterations 2
time step continuity errors : sum local = 0.00271206, global = 0.000102775, cumulative = 0.00614455
smoothSolver:  Solving for omega, Initial residual = 0.0126006, Final residual = 0.000831679, No Iterations 6
smoothSolver:  Solving for k, Initial residual = 0.083313, Final residual = 0.00639521, No Iterations 6
ExecutionTime = 0.23 s  ClockTime = 0 s

scalarTransport execute: age
smoothSolver:  Solving for age, Initial residual = 0.0472254, Final residual = 0.00363997, No Iterations 4

Time = 17

smoothSolver:  Solving for Ux, Initial residual = 0.0213282, Final residual = 0.00152987, No Iterations 6
smoothSolver:  Solving for Uy, Initial residual = 0.01535, Final residual = 0.0011196, No Iterations 6
GAMG:  Solving for p, Initial residual = 0.0175772, Final residual = 0.00088668, No Iterations 2
time step continuity errors : sum local = 0.00262489, global = 0.000177866, cumulative = 0.00632241
smoothSolver:  Solving for omega, Initial residual = 0.0111787, Final residual = 0.000741082, No Iterations 6
smoothSolver:  Solving for k, Initial residual = 0.0773335, Final residual = 0.00598141, No Iterations 6
ExecutionTime = 0.24 s  ClockTime = 0 s

scalarTransport execute: age
smoothSolver:  Solving for age, Initial residual = 0.043206, Final residual = 0.00348074, No Iterations 4

Time = 18

smoothSolver:  Solving for Ux, Initial residual = 0.0206347, Final residual = 0.00148498, No Iterations 6
smoothSolver:  Solving for Uy, Initial residual = 0.0152453, Final residual = 0.00111563, No Iterations 6
GAMG:  Solving for p, Initial residual = 0.0169261, Final residual = 0.000878344, No Iterations 2
time step continuity errors : sum local = 0.00257924, global = 0.00022868, cumulative = 0.00655109
smoothSolver:  Solving for omega, Initial residual = 0.00999404, Final residual = 0.000664276, No Iterations 6
smoothSolver:  Solving for k, Initial residual = 0.0720978, Final residual = 0.00561239, No Iterations 6
ExecutionTime = 0.25 s  ClockTime = 0 s

scalarTransport execute: age
smoothSolver:  Solving for age, Initial residual = 0.0400118, Final residual = 0.00337745, No Iterations 4

Time = 19

smoothSolver:  Solving for Ux, Initial residual = 0.0199924, Final residual = 0.00144304, No Iterations 6
smoothSolver:  Solving for Uy, Initial residual = 0.0151327, Final residual = 0.00111091, No Iterations 6
GAMG:  Solving for p, Initial residual = 0.0164546, Final residual = 0.000875775, No Iterations 2
time step continuity errors : sum local = 0.00254751, global = 0.000253835, cumulative = 0.00680493
smoothSolver:  Solving for omega, Initial residual = 0.00898576, Final residual = 0.000598778, No Iterations 6
smoothSolver:  Solving for k, Initial residual = 0.0674768, Final residual = 0.00528149, No Iterations 6
ExecutionTime = 0.26 s  ClockTime = 0 s

scalarTransport execute: age
smoothSolver:  Solving for age, Initial residual = 0.0361691, Final residual = 0.00313975, No Iterations 4

Time = 20

smoothSolver:  Solving for Ux, Initial residual = 0.0194264, Final residual = 0.00140604, No Iterations 6
smoothSolver:  Solving for Uy, Initial residual = 0.0149797, Final residual = 0.00110561, No Iterations 6
GAMG:  Solving for p, Initial residual = 0.0159235, Final residual = 0.000871272, No Iterations 2
time step continuity errors : sum local = 0.00251032, global = 0.000260684, cumulative = 0.00706561
smoothSolver:  Solving for omega, Initial residual = 0.00812179, Final residual = 0.000542399, No Iterations 6
smoothSolver:  Solving for k, Initial residual = 0.0633676, Final residual = 0.00498315, No Iterations 6
ExecutionTime = 0.27 s  ClockTime = 0 s

scalarTransport execute: age
smoothSolver:  Solving for age, Initial residual = 0.0327514, Final residual = 0.00299855, No Iterations 4

Time = 21

smoothSolver:  Solving for Ux, Initial residual = 0.0189355, Final residual = 0.00137527, No Iterations 6
smoothSolver:  Solving for Uy, Initial residual = 0.01481, Final residual = 0.00109838, No Iterations 6
GAMG:  Solving for p, Initial residual = 0.01535, Final residual = 0.000868861, No Iterations 2
time step continuity errors : sum local = 0.00248136, global = 0.000255034, cumulative = 0.00732065
smoothSolver:  Solving for omega, Initial residual = 0.00738345, Final residual = 0.000493339, No Iterations 6
smoothSolver:  Solving for k, Initial residual = 0.0596818, Final residual = 0.00471234, No Iterations 6
ExecutionTime = 0.29 s  ClockTime = 0 s

scalarTransport execute: age
smoothSolver:  Solving for age, Initial residual = 0.029341, Final residual = 0.0023652, No Iterations 5

Time = 22

smoothSolver:  Solving for Ux, Initial residual = 0.0185309, Final residual = 0.00134958, No Iterations 6
smoothSolver:  Solving for Uy, Initial residual = 0.0146225, Final residual = 0.00108891, No Iterations 6
GAMG:  Solving for p, Initial residual = 0.0147369, Final residual = 0.00087058, No Iterations 2
time step continuity errors : sum local = 0.00246751, global = 0.000241509, cumulative = 0.00756215
smoothSolver:  Solving for omega, Initial residual = 0.00674023, Final residual = 0.000450352, No Iterations 6
smoothSolver:  Solving for k, Initial residual = 0.0563635, Final residual = 0.0044657, No Iterations 6
ExecutionTime = 0.3 s  ClockTime = 0 s

scalarTransport execute: age
smoothSolver:  Solving for age, Initial residual = 0.0266414, Final residual = 0.00225934, No Iterations 5

Time = 23

smoothSolver:  Solving for Ux, Initial residual = 0.018152, Final residual = 0.0013276, No Iterations 6
smoothSolver:  Solving for Uy, Initial residual = 0.0144049, Final residual = 0.00107681, No Iterations 6
GAMG:  Solving for p, Initial residual = 0.014129, Final residual = 0.000873233, No Iterations 2
time step continuity errors : sum local = 0.00245789, global = 0.000223956, cumulative = 0.00778611
smoothSolver:  Solving for omega, Initial residual = 0.00617671, Final residual = 0.000412528, No Iterations 6
smoothSolver:  Solving for k, Initial residual = 0.0533536, Final residual = 0.00423981, No Iterations 6
ExecutionTime = 0.31 s  ClockTime = 0 s

scalarTransport execute: age
smoothSolver:  Solving for age, Initial residual = 0.0248782, Final residual = 0.00221498, No Iterations 5

Time = 24

smoothSolver:  Solving for Ux, Initial residual = 0.0178302, Final residual = 0.00130886, No Iterations 6
smoothSolver:  Solving for Uy, Initial residual = 0.0141722, Final residual = 0.00106271, No Iterations 6
GAMG:  Solving for p, Initial residual = 0.013536, Final residual = 0.000873212, No Iterations 2
time step continuity errors : sum local = 0.00244204, global = 0.00020537, cumulative = 0.00799148
smoothSolver:  Solving for omega, Initial residual = 0.00567921, Final residual = 0.000379193, No Iterations 6
smoothSolver:  Solving for k, Initial residual = 0.0506135, Final residual = 0.00403235, No Iterations 6
ExecutionTime = 0.32 s  ClockTime = 0 s

scalarTransport execute: age
smoothSolver:  Solving for age, Initial residual = 0.0238581, Final residual = 0.00225843, No Iterations 5

Time = 25

smoothSolver:  Solving for Ux, Initial residual = 0.0175316, Final residual = 0.00129285, No Iterations 6
smoothSolver:  Solving for Uy, Initial residual = 0.0139617, Final residual = 0.00104718, No Iterations 6
GAMG:  Solving for p, Initial residual = 0.0131387, Final residual = 0.000867688, No Iterations 2
time step continuity errors : sum local = 0.00241184, global = 0.000187265, cumulative = 0.00817875
smoothSolver:  Solving for omega, Initial residual = 0.00524372, Final residual = 0.000349857, No Iterations 6
smoothSolver:  Solving for k, Initial residual = 0.0480908, Final residual = 0.00383998, No Iterations 6
ExecutionTime = 0.33 s  ClockTime = 0 s

scalarTransport execute: age
smoothSolver:  Solving for age, Initial residual = 0.0231199, Final residual = 0.00185848, No Iterations 6

Time = 26

smoothSolver:  Solving for Ux, Initial residual = 0.0172672, Final residual = 0.00128088, No Iterations 6
smoothSolver:  Solving for Uy, Initial residual = 0.0137637, Final residual = 0.00103019, No Iterations 6
GAMG:  Solving for p, Initial residual = 0.0131154, Final residual = 0.000862206, No Iterations 2
time step continuity errors : sum local = 0.00238364, global = 0.000173279, cumulative = 0.00835202
smoothSolver:  Solving for omega, Initial residual = 0.00486075, Final residual = 0.000324007, No Iterations 6
smoothSolver:  Solving for k, Initial residual = 0.045776, Final residual = 0.00366204, No Iterations 6
ExecutionTime = 0.34 s  ClockTime = 0 s

scalarTransport execute: age
smoothSolver:  Solving for age, Initial residual = 0.0221908, Final residual = 0.00189447, No Iterations 6

Time = 27

smoothSolver:  Solving for Ux, Initial residual = 0.0170464, Final residual = 0.00127172, No Iterations 6
smoothSolver:  Solving for Uy, Initial residual = 0.0135679, Final residual = 0.00101196, No Iterations 6
GAMG:  Solving for p, Initial residual = 0.0133339, Final residual = 0.000863021, No Iterations 2
time step continuity errors : sum local = 0.00237481, global = 0.000164068, cumulative = 0.00851609
smoothSolver:  Solving for omega, Initial residual = 0.00452436, Final residual = 0.000300788, No Iterations 6
smoothSolver:  Solving for k, Initial residual = 0.0436303, Final residual = 0.00349614, No Iterations 6
ExecutionTime = 0.36 s  ClockTime = 0 s

scalarTransport execute: age
smoothSolver:  Solving for age, Initial residual = 0.0210839, Final residual = 0.00192709, No Iterations 6

Time = 28

smoothSolver:  Solving for Ux, Initial residual = 0.0168874, Final residual = 0.00126584, No Iterations 6
smoothSolver:  Solving for Uy, Initial residual = 0.0133602, Final residual = 0.000992641, No Iterations 6
GAMG:  Solving for p, Initial residual = 0.0135799, Final residual = 0.000890048, No Iterations 2
time step continuity errors : sum local = 0.00243557, global = 0.000158697, cumulative = 0.00867479
smoothSolver:  Solving for omega, Initial residual = 0.00422194, Final residual = 0.000279806, No Iterations 6
smoothSolver:  Solving for k, Initial residual = 0.0416304, Final residual = 0.00334052, No Iterations 6
ExecutionTime = 0.37 s  ClockTime = 1 s

scalarTransport execute: age
smoothSolver:  Solving for age, Initial residual = 0.0201063, Final residual = 0.00171531, No Iterations 7

Time = 29

smoothSolver:  Solving for Ux, Initial residual = 0.0167639, Final residual = 0.00126043, No Iterations 6
smoothSolver:  Solving for Uy, Initial residual = 0.0131209, Final residual = 0.000972295, No Iterations 6
GAMG:  Solving for p, Initial residual = 0.0136486, Final residual = 0.000937491, No Iterations 2
time step continuity errors : sum local = 0.00254761, global = 0.000156359, cumulative = 0.00883115
smoothSolver:  Solving for omega, Initial residual = 0.00395139, Final residual = 0.000260755, No Iterations 6
smoothSolver:  Solving for k, Initial residual = 0.0397689, Final residual = 0.0031946, No Iterations 6
ExecutionTime = 0.38 s  ClockTime = 1 s

scalarTransport execute: age
smoothSolver:  Solving for age, Initial residual = 0.0191518, Final residual = 0.0018294, No Iterations 7

Time = 30

smoothSolver:  Solving for Ux, Initial residual = 0.0166645, Final residual = 0.001255, No Iterations 6
smoothSolver:  Solving for Uy, Initial residual = 0.0128357, Final residual = 0.000949697, No Iterations 6
GAMG:  Solving for p, Initial residual = 0.013462, Final residual = 0.000973409, No Iterations 2
time step continuity errors : sum local = 0.00263114, global = 0.000154773, cumulative = 0.00898592
smoothSolver:  Solving for omega, Initial residual = 0.00370553, Final residual = 0.000243422, No Iterations 6
smoothSolver:  Solving for k, Initial residual = 0.0380271, Final residual = 0.00305742, No Iterations 6
ExecutionTime = 0.39 s  ClockTime = 1 s

scalarTransport execute: age
smoothSolver:  Solving for age, Initial residual = 0.0183959, Final residual = 0.00161689, No Iterations 8

Time = 31

smoothSolver:  Solving for Ux, Initial residual = 0.0165623, Final residual = 0.00124814, No Iterations 6
smoothSolver:  Solving for Uy, Initial residual = 0.0125043, Final residual = 0.000925533, No Iterations 6
GAMG:  Solving for p, Initial residual = 0.0129852, Final residual = 0.000997214, No Iterations 2
time step continuity errors : sum local = 0.00268315, global = 0.000151225, cumulative = 0.00913715
smoothSolver:  Solving for omega, Initial residual = 0.00348135, Final residual = 0.000227565, No Iterations 6
smoothSolver:  Solving for k, Initial residual = 0.0363932, Final residual = 0.00292836, No Iterations 6
ExecutionTime = 0.4 s  ClockTime = 1 s

scalarTransport execute: age
smoothSolver:  Solving for age, Initial residual = 0.0178381, Final residual = 0.00172154, No Iterations 8

Time = 32

smoothSolver:  Solving for Ux, Initial residual = 0.0164535, Final residual = 0.00123943, No Iterations 6
smoothSolver:  Solving for Uy, Initial residual = 0.0121426, Final residual = 0.000900413, No Iterations 6
GAMG:  Solving for p, Initial residual = 0.0123479, Final residual = 0.00101568, No Iterations 2
time step continuity errors : sum local = 0.00271989, global = 0.00014339, cumulative = 0.00928054
smoothSolver:  Solving for omega, Initial residual = 0.00327919, Final residual = 0.000212992, No Iterations 6
smoothSolver:  Solving for k, Initial residual = 0.0348593, Final residual = 0.00280721, No Iterations 6
ExecutionTime = 0.42 s  ClockTime = 1 s

scalarTransport execute: age
smoothSolver:  Solving for age, Initial residual = 0.0175119, Final residual = 0.00157143, No Iterations 9

Time = 33

smoothSolver:  Solving for Ux, Initial residual = 0.0163126, Final residual = 0.0012287, No Iterations 6
smoothSolver:  Solving for Uy, Initial residual = 0.0117686, Final residual = 0.000875942, No Iterations 6
GAMG:  Solving for p, Initial residual = 0.0117494, Final residual = 0.00103911, No Iterations 2
time step continuity errors : sum local = 0.00277041, global = 0.000131986, cumulative = 0.00941252
smoothSolver:  Solving for omega, Initial residual = 0.00309342, Final residual = 0.000308891, No Iterations 5
smoothSolver:  Solving for k, Initial residual = 0.0334491, Final residual = 0.00269598, No Iterations 6
ExecutionTime = 0.43 s  ClockTime = 1 s

scalarTransport execute: age
smoothSolver:  Solving for age, Initial residual = 0.0174601, Final residual = 0.00168458, No Iterations 9

Time = 34

smoothSolver:  Solving for Ux, Initial residual = 0.0161787, Final residual = 0.00121795, No Iterations 6
smoothSolver:  Solving for Uy, Initial residual = 0.0114188, Final residual = 0.000854241, No Iterations 6
GAMG:  Solving for p, Initial residual = 0.0113593, Final residual = 0.00106392, No Iterations 2
time step continuity errors : sum local = 0.00282857, global = 0.000120811, cumulative = 0.00953333
smoothSolver:  Solving for omega, Initial residual = 0.00293801, Final residual = 0.0002914, No Iterations 5
smoothSolver:  Solving for k, Initial residual = 0.032141, Final residual = 0.00259286, No Iterations 6
ExecutionTime = 0.44 s  ClockTime = 1 s

scalarTransport execute: age
smoothSolver:  Solving for age, Initial residual = 0.01832, Final residual = 0.00178922, No Iterations 9

Time = 35

smoothSolver:  Solving for Ux, Initial residual = 0.0160431, Final residual = 0.00120693, No Iterations 6
smoothSolver:  Solving for Uy, Initial residual = 0.0111267, Final residual = 0.000834576, No Iterations 6
GAMG:  Solving for p, Initial residual = 0.0109593, Final residual = 0.000924831, No Iterations 3
time step continuity errors : sum local = 0.00244016, global = 7.06863e-05, cumulative = 0.00960402
smoothSolver:  Solving for omega, Initial residual = 0.00281993, Final residual = 0.000275858, No Iterations 5
smoothSolver:  Solving for k, Initial residual = 0.0309051, Final residual = 0.00249637, No Iterations 6
ExecutionTime = 0.45 s  ClockTime = 1 s

scalarTransport execute: age
smoothSolver:  Solving for age, Initial residual = 0.0185007, Final residual = 0.00166633, No Iterations 10

Time = 36

smoothSolver:  Solving for Ux, Initial residual = 0.0161473, Final residual = 0.00120894, No Iterations 6
smoothSolver:  Solving for Uy, Initial residual = 0.0109982, Final residual = 0.000822403, No Iterations 6
GAMG:  Solving for p, Initial residual = 0.0108485, Final residual = 0.000879351, No Iterations 2
time step continuity errors : sum local = 0.00229587, global = 7.96348e-05, cumulative = 0.00968365
smoothSolver:  Solving for omega, Initial residual = 0.00265445, Final residual = 0.000260294, No Iterations 5
smoothSolver:  Solving for k, Initial residual = 0.0297593, Final residual = 0.00240572, No Iterations 6
ExecutionTime = 0.46 s  ClockTime = 1 s

scalarTransport execute: age
smoothSolver:  Solving for age, Initial residual = 0.0191057, Final residual = 0.00180412, No Iterations 10

Time = 37

smoothSolver:  Solving for Ux, Initial residual = 0.0158534, Final residual = 0.00118613, No Iterations 6
smoothSolver:  Solving for Uy, Initial residual = 0.0106108, Final residual = 0.000801694, No Iterations 6
GAMG:  Solving for p, Initial residual = 0.0107104, Final residual = 0.00068331, No Iterations 3
time step continuity errors : sum local = 0.00177949, global = 5.806e-05, cumulative = 0.00974171
smoothSolver:  Solving for omega, Initial residual = 0.00252818, Final residual = 0.000245799, No Iterations 5
smoothSolver:  Solving for k, Initial residual = 0.0286781, Final residual = 0.0023208, No Iterations 6
ExecutionTime = 0.48 s  ClockTime = 1 s

scalarTransport execute: age
smoothSolver:  Solving for age, Initial residual = 0.0192757, Final residual = 0.00170072, No Iterations 11

Time = 38

smoothSolver:  Solving for Ux, Initial residual = 0.0156694, Final residual = 0.00116181, No Iterations 6
smoothSolver:  Solving for Uy, Initial residual = 0.0103575, Final residual = 0.000784691, No Iterations 6
GAMG:  Solving for p, Initial residual = 0.0101527, Final residual = 0.000983847, No Iterations 2
time step continuity errors : sum local = 0.00256059, global = 6.60183e-05, cumulative = 0.00980773
smoothSolver:  Solving for omega, Initial residual = 0.0024033, Final residual = 0.00023231, No Iterations 5
smoothSolver:  Solving for k, Initial residual = 0.0276767, Final residual = 0.00224069, No Iterations 6
ExecutionTime = 0.49 s  ClockTime = 1 s

scalarTransport execute: age
smoothSolver:  Solving for age, Initial residual = 0.0200262, Final residual = 0.00188973, No Iterations 11

Time = 39

smoothSolver:  Solving for Ux, Initial residual = 0.0154166, Final residual = 0.00113961, No Iterations 6
smoothSolver:  Solving for Uy, Initial residual = 0.0100952, Final residual = 0.000768584, No Iterations 6
GAMG:  Solving for p, Initial residual = 0.0102894, Final residual = 0.000850358, No Iterations 3
time step continuity errors : sum local = 0.00220508, global = 6.05518e-05, cumulative = 0.00986828
smoothSolver:  Solving for omega, Initial residual = 0.00229437, Final residual = 0.000219541, No Iterations 5
smoothSolver:  Solving for k, Initial residual = 0.026733, Final residual = 0.00216526, No Iterations 6
ExecutionTime = 0.5 s  ClockTime = 1 s

scalarTransport execute: age
smoothSolver:  Solving for age, Initial residual = 0.0209314, Final residual = 0.00207446, No Iterations 11

Time = 40

smoothSolver:  Solving for Ux, Initial residual = 0.0153033, Final residual = 0.00111957, No Iterations 6
smoothSolver:  Solving for Uy, Initial residual = 0.00996569, Final residual = 0.000760248, No Iterations 6
GAMG:  Solving for p, Initial residual = 0.0100135, Final residual = 0.000661019, No Iterations 3
time step continuity errors : sum local = 0.00171148, global = 5.30685e-05, cumulative = 0.00992135
smoothSolver:  Solving for omega, Initial residual = 0.00219405, Final residual = 0.0002074, No Iterations 5
smoothSolver:  Solving for k, Initial residual = 0.0258611, Final residual = 0.00209425, No Iterations 6
ExecutionTime = 0.51 s  ClockTime = 1 s

scalarTransport execute: age
smoothSolver:  Solving for age, Initial residual = 0.0216438, Final residual = 0.00195765, No Iterations 12

Time = 41

smoothSolver:  Solving for Ux, Initial residual = 0.0151484, Final residual = 0.00110314, No Iterations 6
smoothSolver:  Solving for Uy, Initial residual = 0.00987769, Final residual = 0.000754442, No Iterations 6
GAMG:  Solving for p, Initial residual = 0.00991492, Final residual = 0.000626396, No Iterations 3
time step continuity errors : sum local = 0.00161321, global = 5.14812e-05, cumulative = 0.00997283
smoothSolver:  Solving for omega, Initial residual = 0.00209521, Final residual = 0.000197008, No Iterations 5
smoothSolver:  Solving for k, Initial residual = 0.0250386, Final residual = 0.00202745, No Iterations 6
ExecutionTime = 0.53 s  ClockTime = 1 s

scalarTransport execute: age
smoothSolver:  Solving for age, Initial residual = 0.0225304, Final residual = 0.00209407, No Iterations 12

Time = 42

smoothSolver:  Solving for Ux, Initial residual = 0.0149322, Final residual = 0.00108354, No Iterations 6
smoothSolver:  Solving for Uy, Initial residual = 0.00974113, Final residual = 0.000746663, No Iterations 6
GAMG:  Solving for p, Initial residual = 0.00973726, Final residual = 0.000597312, No Iterations 3
time step continuity errors : sum local = 0.00153267, global = 5.04578e-05, cumulative = 0.0100233
smoothSolver:  Solving for omega, Initial residual = 0.00199371, Final residual = 0.000186617, No Iterations 5
smoothSolver:  Solving for k, Initial residual = 0.0242757, Final residual = 0.00196461, No Iterations 6
ExecutionTime = 0.54 s  ClockTime = 1 s

scalarTransport execute: age
smoothSolver:  Solving for age, Initial residual = 0.0228717, Final residual = 0.00214256, No Iterations 12

Time = 43

smoothSolver:  Solving for Ux, Initial residual = 0.0147051, Final residual = 0.0010618, No Iterations 6
smoothSolver:  Solving for Uy, Initial residual = 0.00961872, Final residual = 0.00074034, No Iterations 6
GAMG:  Solving for p, Initial residual = 0.00955954, Final residual = 0.000623545, No Iterations 3
time step continuity errors : sum local = 0.00159284, global = 4.91816e-05, cumulative = 0.0100725
smoothSolver:  Solving for omega, Initial residual = 0.00191661, Final residual = 0.000177421, No Iterations 5
smoothSolver:  Solving for k, Initial residual = 0.023557, Final residual = 0.00190543, No Iterations 6
ExecutionTime = 0.55 s  ClockTime = 1 s

scalarTransport execute: age
smoothSolver:  Solving for age, Initial residual = 0.0225535, Final residual = 0.00204364, No Iterations 12

Time = 44

smoothSolver:  Solving for Ux, Initial residual = 0.0144522, Final residual = 0.00103854, No Iterations 6
smoothSolver:  Solving for Uy, Initial residual = 0.00950945, Final residual = 0.000734548, No Iterations 6
GAMG:  Solving for p, Initial residual = 0.009337, Final residual = 0.000617723, No Iterations 3
time step continuity errors : sum local = 0.00156973, global = 4.85894e-05, cumulative = 0.0101211
smoothSolver:  Solving for omega, Initial residual = 0.0018347, Final residual = 0.000168465, No Iterations 5
smoothSolver:  Solving for k, Initial residual = 0.0228886, Final residual = 0.00184974, No Iterations 6
ExecutionTime = 0.56 s  ClockTime = 1 s

scalarTransport execute: age
smoothSolver:  Solving for age, Initial residual = 0.0219572, Final residual = 0.00212593, No Iterations 11

Time = 45

smoothSolver:  Solving for Ux, Initial residual = 0.0141978, Final residual = 0.00101528, No Iterations 6
smoothSolver:  Solving for Uy, Initial residual = 0.0094133, Final residual = 0.000729998, No Iterations 6
GAMG:  Solving for p, Initial residual = 0.00909062, Final residual = 0.000632144, No Iterations 3
time step continuity errors : sum local = 0.0015969, global = 5.07067e-05, cumulative = 0.0101718
smoothSolver:  Solving for omega, Initial residual = 0.00176882, Final residual = 0.000160528, No Iterations 5
smoothSolver:  Solving for k, Initial residual = 0.0222582, Final residual = 0.00179721, No Iterations 6
ExecutionTime = 0.57 s  ClockTime = 1 s

scalarTransport execute: age
smoothSolver:  Solving for age, Initial residual = 0.0211037, Final residual = 0.00192893, No Iterations 11

Time = 46

smoothSolver:  Solving for Ux, Initial residual = 0.0139275, Final residual = 0.000991584, No Iterations 6
smoothSolver:  Solving for Uy, Initial residual = 0.00933711, Final residual = 0.000726665, No Iterations 6
GAMG:  Solving for p, Initial residual = 0.00885506, Final residual = 0.000631185, No Iterations 3
time step continuity errors : sum local = 0.00158448, global = 5.11311e-05, cumulative = 0.0102229
smoothSolver:  Solving for omega, Initial residual = 0.00169667, Final residual = 0.000152896, No Iterations 5
smoothSolver:  Solving for k, Initial residual = 0.0216693, Final residual = 0.00174759, No Iterations 6
ExecutionTime = 0.59 s  ClockTime = 1 s

scalarTransport execute: age
smoothSolver:  Solving for age, Initial residual = 0.020207, Final residual = 0.00199733, No Iterations 10

Time = 47

smoothSolver:  Solving for Ux, Initial residual = 0.0136476, Final residual = 0.000967689, No Iterations 6
smoothSolver:  Solving for Uy, Initial residual = 0.00925057, Final residual = 0.000722725, No Iterations 6
GAMG:  Solving for p, Initial residual = 0.00862804, Final residual = 0.000632321, No Iterations 3
time step continuity errors : sum local = 0.00157706, global = 5.28169e-05, cumulative = 0.0102757
smoothSolver:  Solving for omega, Initial residual = 0.00163619, Final residual = 0.000146044, No Iterations 5
smoothSolver:  Solving for k, Initial residual = 0.0211127, Final residual = 0.00170053, No Iterations 6
ExecutionTime = 0.6 s  ClockTime = 1 s

scalarTransport execute: age
smoothSolver:  Solving for age, Initial residual = 0.0193386, Final residual = 0.00182527, No Iterations 10

Time = 48

smoothSolver:  Solving for Ux, Initial residual = 0.0133482, Final residual = 0.000942702, No Iterations 6
smoothSolver:  Solving for Uy, Initial residual = 0.00916794, Final residual = 0.00071892, No Iterations 6
GAMG:  Solving for p, Initial residual = 0.00842683, Final residual = 0.000644108, No Iterations 3
time step continuity errors : sum local = 0.0015947, global = 5.43983e-05, cumulative = 0.0103301
smoothSolver:  Solving for omega, Initial residual = 0.00157389, Final residual = 0.000139522, No Iterations 5
smoothSolver:  Solving for k, Initial residual = 0.0205903, Final residual = 0.00165576, No Iterations 6
ExecutionTime = 0.6 s  ClockTime = 1 s

scalarTransport execute: age
smoothSolver:  Solving for age, Initial residual = 0.0186187, Final residual = 0.00168705, No Iterations 10

Time = 49

smoothSolver:  Solving for Ux, Initial residual = 0.0130394, Final residual = 0.000916981, No Iterations 6
smoothSolver:  Solving for Uy, Initial residual = 0.00907898, Final residual = 0.000714335, No Iterations 6
GAMG:  Solving for p, Initial residual = 0.0082511, Final residual = 0.000647292, No Iterations 3
time step continuity errors : sum local = 0.00159074, global = 5.71933e-05, cumulative = 0.0103873
smoothSolver:  Solving for omega, Initial residual = 0.00152088, Final residual = 0.000133571, No Iterations 5
smoothSolver:  Solving for k, Initial residual = 0.020093, Final residual = 0.00161312, No Iterations 6
ExecutionTime = 0.61 s  ClockTime = 1 s

scalarTransport execute: age
smoothSolver:  Solving for age, Initial residual = 0.018085, Final residual = 0.00156918, No Iterations 10

Time = 50

smoothSolver:  Solving for Ux, Initial residual = 0.0127254, Final residual = 0.000890819, No Iterations 6
smoothSolver:  Solving for Uy, Initial residual = 0.00899999, Final residual = 0.000709351, No Iterations 6
GAMG:  Solving for p, Initial residual = 0.00809225, Final residual = 0.000659948, No Iterations 3
time step continuity errors : sum local = 0.00160981, global = 5.94124e-05, cumulative = 0.0104467
smoothSolver:  Solving for omega, Initial residual = 0.00146597, Final residual = 0.000127752, No Iterations 5
smoothSolver:  Solving for k, Initial residual = 0.0196227, Final residual = 0.00157229, No Iterations 6
ExecutionTime = 0.62 s  ClockTime = 1 s

scalarTransport execute: age
smoothSolver:  Solving for age, Initial residual = 0.0174531, Final residual = 0.00170424, No Iterations 9

Time = 51

smoothSolver:  Solving for Ux, Initial residual = 0.0124185, Final residual = 0.00086452, No Iterations 6
smoothSolver:  Solving for Uy, Initial residual = 0.00890854, Final residual = 0.000702353, No Iterations 6
GAMG:  Solving for p, Initial residual = 0.00794029, Final residual = 0.000657008, No Iterations 3
time step continuity errors : sum local = 0.00159097, global = 6.23537e-05, cumulative = 0.0105091
smoothSolver:  Solving for omega, Initial residual = 0.00141325, Final residual = 0.000121891, No Iterations 5
smoothSolver:  Solving for k, Initial residual = 0.019169, Final residual = 0.00153317, No Iterations 6
ExecutionTime = 0.65 s  ClockTime = 1 s

scalarTransport execute: age
smoothSolver:  Solving for age, Initial residual = 0.0167162, Final residual = 0.00161444, No Iterations 9

Time = 52

smoothSolver:  Solving for Ux, Initial residual = 0.0121115, Final residual = 0.000838131, No Iterations 6
smoothSolver:  Solving for Uy, Initial residual = 0.00881161, Final residual = 0.000694047, No Iterations 6
GAMG:  Solving for p, Initial residual = 0.00782739, Final residual = 0.00066928, No Iterations 3
time step continuity errors : sum local = 0.00160846, global = 6.42273e-05, cumulative = 0.0105733
smoothSolver:  Solving for omega, Initial residual = 0.00133874, Final residual = 0.000115484, No Iterations 5
smoothSolver:  Solving for k, Initial residual = 0.0187335, Final residual = 0.00149578, No Iterations 6
ExecutionTime = 0.66 s  ClockTime = 1 s

scalarTransport execute: age
smoothSolver:  Solving for age, Initial residual = 0.0159775, Final residual = 0.00154243, No Iterations 9

Time = 53

smoothSolver:  Solving for Ux, Initial residual = 0.0118081, Final residual = 0.000812169, No Iterations 6
smoothSolver:  Solving for Uy, Initial residual = 0.00869439, Final residual = 0.000682964, No Iterations 6
GAMG:  Solving for p, Initial residual = 0.00770558, Final residual = 0.000667078, No Iterations 3
time step continuity errors : sum local = 0.00159086, global = 6.6551e-05, cumulative = 0.0106399
smoothSolver:  Solving for omega, Initial residual = 0.00129678, Final residual = 0.000110591, No Iterations 5
smoothSolver:  Solving for k, Initial residual = 0.0183127, Final residual = 0.00145934, No Iterations 6
ExecutionTime = 0.67 s  ClockTime = 1 s

scalarTransport execute: age
smoothSolver:  Solving for age, Initial residual = 0.015268, Final residual = 0.00145773, No Iterations 9

Time = 54

smoothSolver:  Solving for Ux, Initial residual = 0.0115209, Final residual = 0.000786642, No Iterations 6
smoothSolver:  Solving for Uy, Initial residual = 0.00855129, Final residual = 0.000669959, No Iterations 6
GAMG:  Solving for p, Initial residual = 0.0076207, Final residual = 0.000676967, No Iterations 3
time step continuity errors : sum local = 0.00160213, global = 6.78371e-05, cumulative = 0.0107077
smoothSolver:  Solving for omega, Initial residual = 0.0012622, Final residual = 0.000106326, No Iterations 5
smoothSolver:  Solving for k, Initial residual = 0.0179037, Final residual = 0.00142339, No Iterations 6
ExecutionTime = 0.68 s  ClockTime = 1 s

scalarTransport execute: age
smoothSolver:  Solving for age, Initial residual = 0.0145742, Final residual = 0.00137002, No Iterations 9

Time = 55

smoothSolver:  Solving for Ux, Initial residual = 0.0112515, Final residual = 0.000761811, No Iterations 6
smoothSolver:  Solving for Uy, Initial residual = 0.00838283, Final residual = 0.000653727, No Iterations 6
GAMG:  Solving for p, Initial residual = 0.0075404, Final residual = 0.000671619, No Iterations 3
time step continuity errors : sum local = 0.00157761, global = 6.90873e-05, cumulative = 0.0107768
smoothSolver:  Solving for omega, Initial residual = 0.00123052, Final residual = 0.000102389, No Iterations 5
smoothSolver:  Solving for k, Initial residual = 0.0174994, Final residual = 0.00138781, No Iterations 6
ExecutionTime = 0.69 s  ClockTime = 1 s

scalarTransport execute: age
smoothSolver:  Solving for age, Initial residual = 0.0139162, Final residual = 0.00128885, No Iterations 9

Time = 56

smoothSolver:  Solving for Ux, Initial residual = 0.010977, Final residual = 0.00073724, No Iterations 6
smoothSolver:  Solving for Uy, Initial residual = 0.008197, Final residual = 0.00063621, No Iterations 6
GAMG:  Solving for p, Initial residual = 0.00751113, Final residual = 0.000674654, No Iterations 3
time step continuity errors : sum local = 0.00157345, global = 6.91604e-05, cumulative = 0.0108459
smoothSolver:  Solving for omega, Initial residual = 0.00119858, Final residual = 9.8701e-05, No Iterations 5
smoothSolver:  Solving for k, Initial residual = 0.0170969, Final residual = 0.00135233, No Iterations 6
ExecutionTime = 0.7 s  ClockTime = 1 s

scalarTransport execute: age
smoothSolver:  Solving for age, Initial residual = 0.0132356, Final residual = 0.00122432, No Iterations 9

Time = 57

smoothSolver:  Solving for Ux, Initial residual = 0.010701, Final residual = 0.000712984, No Iterations 6
smoothSolver:  Solving for Uy, Initial residual = 0.00798309, Final residual = 0.000615933, No Iterations 6
GAMG:  Solving for p, Initial residual = 0.00746754, Final residual = 0.000662481, No Iterations 3
time step continuity errors : sum local = 0.00153425, global = 6.94806e-05, cumulative = 0.0109154
smoothSolver:  Solving for omega, Initial residual = 0.00117251, Final residual = 9.53346e-05, No Iterations 5
smoothSolver:  Solving for k, Initial residual = 0.0166908, Final residual = 0.00131664, No Iterations 6
ExecutionTime = 0.72 s  ClockTime = 1 s

scalarTransport execute: age
smoothSolver:  Solving for age, Initial residual = 0.0125959, Final residual = 0.00116757, No Iterations 9

Time = 58

smoothSolver:  Solving for Ux, Initial residual = 0.0104246, Final residual = 0.000689167, No Iterations 6
smoothSolver:  Solving for Uy, Initial residual = 0.00775497, Final residual = 0.000594586, No Iterations 6
GAMG:  Solving for p, Initial residual = 0.0074686, Final residual = 0.000653115, No Iterations 3
time step continuity errors : sum local = 0.0015014, global = 6.9184e-05, cumulative = 0.0109846
smoothSolver:  Solving for omega, Initial residual = 0.00114553, Final residual = 9.21132e-05, No Iterations 5
smoothSolver:  Solving for k, Initial residual = 0.0162799, Final residual = 0.00128044, No Iterations 6
ExecutionTime = 0.73 s  ClockTime = 1 s

scalarTransport execute: age
smoothSolver:  Solving for age, Initial residual = 0.0120434, Final residual = 0.00111367, No Iterations 9

Time = 59

smoothSolver:  Solving for Ux, Initial residual = 0.0101505, Final residual = 0.000665979, No Iterations 6
smoothSolver:  Solving for Uy, Initial residual = 0.00749487, Final residual = 0.000570674, No Iterations 6
GAMG:  Solving for p, Initial residual = 0.007451, Final residual = 0.000634532, No Iterations 3
time step continuity errors : sum local = 0.00144801, global = 6.88571e-05, cumulative = 0.0110535
smoothSolver:  Solving for omega, Initial residual = 0.00113246, Final residual = 8.92121e-05, No Iterations 5
smoothSolver:  Solving for k, Initial residual = 0.0158591, Final residual = 0.00124363, No Iterations 6
ExecutionTime = 0.74 s  ClockTime = 1 s

scalarTransport execute: age
smoothSolver:  Solving for age, Initial residual = 0.011624, Final residual = 0.0010631, No Iterations 9

Time = 60

smoothSolver:  Solving for Ux, Initial residual = 0.0098704, Final residual = 0.000643302, No Iterations 6
smoothSolver:  Solving for Uy, Initial residual = 0.0072211, Final residual = 0.000545799, No Iterations 6
GAMG:  Solving for p, Initial residual = 0.00746238, Final residual = 0.000613796, No Iterations 3
time step continuity errors : sum local = 0.00139042, global = 6.75719e-05, cumulative = 0.011121
smoothSolver:  Solving for omega, Initial residual = 0.00111818, Final residual = 8.63191e-05, No Iterations 5
smoothSolver:  Solving for k, Initial residual = 0.0154299, Final residual = 0.00120605, No Iterations 6
ExecutionTime = 0.75 s  ClockTime = 1 s

scalarTransport execute: age
smoothSolver:  Solving for age, Initial residual = 0.0110133, Final residual = 0.00101154, No Iterations 9

Time = 61

smoothSolver:  Solving for Ux, Initial residual = 0.00959004, Final residual = 0.00095709, No Iterations 5
smoothSolver:  Solving for Uy, Initial residual = 0.00692995, Final residual = 0.000518949, No Iterations 6
GAMG:  Solving for p, Initial residual = 0.00739868, Final residual = 0.000592303, No Iterations 3
time step continuity errors : sum local = 0.00133222, global = 6.60413e-05, cumulative = 0.0111871
smoothSolver:  Solving for omega, Initial residual = 0.00109366, Final residual = 8.31311e-05, No Iterations 5
smoothSolver:  Solving for k, Initial residual = 0.0149877, Final residual = 0.00116761, No Iterations 6
ExecutionTime = 0.76 s  ClockTime = 1 s

scalarTransport execute: age
smoothSolver:  Solving for age, Initial residual = 0.0104393, Final residual = 0.000962869, No Iterations 9

Time = 62

smoothSolver:  Solving for Ux, Initial residual = 0.00941058, Final residual = 0.000935576, No Iterations 5
smoothSolver:  Solving for Uy, Initial residual = 0.00660194, Final residual = 0.000489424, No Iterations 6
GAMG:  Solving for p, Initial residual = 0.00748148, Final residual = 0.000568647, No Iterations 3
time step continuity errors : sum local = 0.00126926, global = 6.40564e-05, cumulative = 0.0112511
smoothSolver:  Solving for omega, Initial residual = 0.00106973, Final residual = 8.00503e-05, No Iterations 5
smoothSolver:  Solving for k, Initial residual = 0.01453, Final residual = 0.00112816, No Iterations 6
ExecutionTime = 0.77 s  ClockTime = 1 s

scalarTransport execute: age
smoothSolver:  Solving for age, Initial residual = 0.00992875, Final residual = 0.000915149, No Iterations 9

Time = 63

smoothSolver:  Solving for Ux, Initial residual = 0.0091934, Final residual = 0.000909629, No Iterations 5
smoothSolver:  Solving for Uy, Initial residual = 0.0062854, Final residual = 0.000460478, No Iterations 6
GAMG:  Solving for p, Initial residual = 0.00760075, Final residual = 0.000554544, No Iterations 3
time step continuity errors : sum local = 0.00122816, global = 6.31685e-05, cumulative = 0.0113143
smoothSolver:  Solving for omega, Initial residual = 0.00104414, Final residual = 7.71128e-05, No Iterations 5
smoothSolver:  Solving for k, Initial residual = 0.0140564, Final residual = 0.00108794, No Iterations 6
ExecutionTime = 0.79 s  ClockTime = 1 s

scalarTransport execute: age
smoothSolver:  Solving for age, Initial residual = 0.00953938, Final residual = 0.000869827, No Iterations 9

Time = 64

smoothSolver:  Solving for Ux, Initial residual = 0.00895801, Final residual = 0.000882224, No Iterations 5
smoothSolver:  Solving for Uy, Initial residual = 0.00597392, Final residual = 0.000432027, No Iterations 6
GAMG:  Solving for p, Initial residual = 0.00778101, Final residual = 0.000534838, No Iterations 3
time step continuity errors : sum local = 0.00117548, global = 6.24207e-05, cumulative = 0.0113767
smoothSolver:  Solving for omega, Initial residual = 0.00101778, Final residual = 7.43745e-05, No Iterations 5
smoothSolver:  Solving for k, Initial residual = 0.0135767, Final residual = 0.0010474, No Iterations 6
ExecutionTime = 0.8 s  ClockTime = 1 s

scalarTransport execute: age
smoothSolver:  Solving for age, Initial residual = 0.00920858, Final residual = 0.000831627, No Iterations 9

Time = 65

smoothSolver:  Solving for Ux, Initial residual = 0.00872462, Final residual = 0.000855357, No Iterations 5
smoothSolver:  Solving for Uy, Initial residual = 0.00567241, Final residual = 0.000404003, No Iterations 6
GAMG:  Solving for p, Initial residual = 0.00802542, Final residual = 0.000517787, No Iterations 3
time step continuity errors : sum local = 0.00113154, global = 6.1912e-05, cumulative = 0.0114386
smoothSolver:  Solving for omega, Initial residual = 0.000999063, Final residual = 7.16656e-05, No Iterations 5
smoothSolver:  Solving for k, Initial residual = 0.0130912, Final residual = 0.00100677, No Iterations 6
ExecutionTime = 0.81 s  ClockTime = 1 s

scalarTransport execute: age
smoothSolver:  Solving for age, Initial residual = 0.00888997, Final residual = 0.000811299, No Iterations 9

Time = 66

smoothSolver:  Solving for Ux, Initial residual = 0.00849421, Final residual = 0.000830368, No Iterations 5
smoothSolver:  Solving for Uy, Initial residual = 0.00538612, Final residual = 0.000377216, No Iterations 6
GAMG:  Solving for p, Initial residual = 0.00824614, Final residual = 0.000500572, No Iterations 3
time step continuity errors : sum local = 0.00108881, global = 6.143e-05, cumulative = 0.0115001
smoothSolver:  Solving for omega, Initial residual = 0.000976308, Final residual = 6.91139e-05, No Iterations 5
smoothSolver:  Solving for k, Initial residual = 0.0126005, Final residual = 0.00096632, No Iterations 6
ExecutionTime = 0.82 s  ClockTime = 1 s

scalarTransport execute: age
smoothSolver:  Solving for age, Initial residual = 0.0086433, Final residual = 0.000811086, No Iterations 9

Time = 67

smoothSolver:  Solving for Ux, Initial residual = 0.0082933, Final residual = 0.00080819, No Iterations 5
smoothSolver:  Solving for Uy, Initial residual = 0.00512201, Final residual = 0.000352226, No Iterations 6
GAMG:  Solving for p, Initial residual = 0.00840543, Final residual = 0.000491923, No Iterations 3
time step continuity errors : sum local = 0.00106594, global = 6.10155e-05, cumulative = 0.0115611
smoothSolver:  Solving for omega, Initial residual = 0.000955228, Final residual = 6.67053e-05, No Iterations 5
smoothSolver:  Solving for k, Initial residual = 0.0121106, Final residual = 0.000926333, No Iterations 6
ExecutionTime = 0.83 s  ClockTime = 1 s

scalarTransport execute: age
smoothSolver:  Solving for age, Initial residual = 0.00847657, Final residual = 0.000827866, No Iterations 9

Time = 68

smoothSolver:  Solving for Ux, Initial residual = 0.00809529, Final residual = 0.000787777, No Iterations 5
smoothSolver:  Solving for Uy, Initial residual = 0.00488683, Final residual = 0.000330909, No Iterations 6
GAMG:  Solving for p, Initial residual = 0.00844731, Final residual = 0.000487151, No Iterations 3
time step continuity errors : sum local = 0.00105374, global = 6.06684e-05, cumulative = 0.0116217
smoothSolver:  Solving for omega, Initial residual = 0.000937172, Final residual = 6.43282e-05, No Iterations 5
smoothSolver:  Solving for k, Initial residual = 0.0116255, Final residual = 0.000887176, No Iterations 6
ExecutionTime = 0.84 s  ClockTime = 1 s

scalarTransport execute: age
smoothSolver:  Solving for age, Initial residual = 0.00835309, Final residual = 0.000756276, No Iterations 10

Time = 69

smoothSolver:  Solving for Ux, Initial residual = 0.00790804, Final residual = 0.000769678, No Iterations 5
smoothSolver:  Solving for Uy, Initial residual = 0.00466768, Final residual = 0.000314453, No Iterations 6
GAMG:  Solving for p, Initial residual = 0.00841058, Final residual = 0.000485127, No Iterations 3
time step continuity errors : sum local = 0.00104908, global = 5.99284e-05, cumulative = 0.0116817
smoothSolver:  Solving for omega, Initial residual = 0.000919748, Final residual = 6.18991e-05, No Iterations 5
smoothSolver:  Solving for k, Initial residual = 0.0111527, Final residual = 0.000849254, No Iterations 6
ExecutionTime = 0.86 s  ClockTime = 1 s

scalarTransport execute: age
smoothSolver:  Solving for age, Initial residual = 0.00823882, Final residual = 0.000793657, No Iterations 10

Time = 70

smoothSolver:  Solving for Ux, Initial residual = 0.00774019, Final residual = 0.000753707, No Iterations 5
smoothSolver:  Solving for Uy, Initial residual = 0.0044683, Final residual = 0.00029982, No Iterations 6
GAMG:  Solving for p, Initial residual = 0.00830177, Final residual = 0.000478191, No Iterations 3
time step continuity errors : sum local = 0.00103446, global = 5.93437e-05, cumulative = 0.011741
smoothSolver:  Solving for omega, Initial residual = 0.000898975, Final residual = 5.93724e-05, No Iterations 5
smoothSolver:  Solving for k, Initial residual = 0.0106986, Final residual = 0.000812886, No Iterations 6
ExecutionTime = 0.87 s  ClockTime = 1 s

scalarTransport execute: age
smoothSolver:  Solving for age, Initial residual = 0.00817586, Final residual = 0.000742059, No Iterations 11

Time = 71

smoothSolver:  Solving for Ux, Initial residual = 0.00757152, Final residual = 0.000739367, No Iterations 5
smoothSolver:  Solving for Uy, Initial residual = 0.00430412, Final residual = 0.000286173, No Iterations 6
GAMG:  Solving for p, Initial residual = 0.00821617, Final residual = 0.000466094, No Iterations 3
time step continuity errors : sum local = 0.00100903, global = 5.81848e-05, cumulative = 0.0117992
smoothSolver:  Solving for omega, Initial residual = 0.000876437, Final residual = 5.67765e-05, No Iterations 5
smoothSolver:  Solving for k, Initial residual = 0.0102662, Final residual = 0.000778353, No Iterations 6
ExecutionTime = 0.88 s  ClockTime = 1 s

scalarTransport execute: age
smoothSolver:  Solving for age, Initial residual = 0.00817533, Final residual = 0.000786399, No Iterations 11

Time = 72

smoothSolver:  Solving for Ux, Initial residual = 0.00741022, Final residual = 0.000726851, No Iterations 5
smoothSolver:  Solving for Uy, Initial residual = 0.00415739, Final residual = 0.000273393, No Iterations 6
GAMG:  Solving for p, Initial residual = 0.0081284, Final residual = 0.000449824, No Iterations 3
time step continuity errors : sum local = 0.000974525, global = 5.65337e-05, cumulative = 0.0118557
smoothSolver:  Solving for omega, Initial residual = 0.000851108, Final residual = 5.40845e-05, No Iterations 5
smoothSolver:  Solving for k, Initial residual = 0.00986389, Final residual = 0.000745695, No Iterations 6
ExecutionTime = 0.89 s  ClockTime = 1 s

scalarTransport execute: age
smoothSolver:  Solving for age, Initial residual = 0.00820732, Final residual = 0.000735774, No Iterations 12

Time = 73

smoothSolver:  Solving for Ux, Initial residual = 0.00725685, Final residual = 0.000714737, No Iterations 5
smoothSolver:  Solving for Uy, Initial residual = 0.00401579, Final residual = 0.000261601, No Iterations 6
GAMG:  Solving for p, Initial residual = 0.00802572, Final residual = 0.000430467, No Iterations 3
time step continuity errors : sum local = 0.000933239, global = 5.43031e-05, cumulative = 0.01191
smoothSolver:  Solving for omega, Initial residual = 0.000824698, Final residual = 5.13805e-05, No Iterations 5
smoothSolver:  Solving for k, Initial residual = 0.00949445, Final residual = 0.000714805, No Iterations 6
ExecutionTime = 0.9 s  ClockTime = 1 s

scalarTransport execute: age
smoothSolver:  Solving for age, Initial residual = 0.00825666, Final residual = 0.000773893, No Iterations 12

Time = 74

smoothSolver:  Solving for Ux, Initial residual = 0.00711287, Final residual = 0.000703344, No Iterations 5
smoothSolver:  Solving for Uy, Initial residual = 0.0038807, Final residual = 0.000386099, No Iterations 5
GAMG:  Solving for p, Initial residual = 0.0078542, Final residual = 0.000418768, No Iterations 3
time step continuity errors : sum local = 0.000908211, global = 5.2694e-05, cumulative = 0.0119627
smoothSolver:  Solving for omega, Initial residual = 0.000796034, Final residual = 4.86848e-05, No Iterations 5
smoothSolver:  Solving for k, Initial residual = 0.00914943, Final residual = 0.000685431, No Iterations 6
ExecutionTime = 0.91 s  ClockTime = 1 s

scalarTransport execute: age
smoothSolver:  Solving for age, Initial residual = 0.0082833, Final residual = 0.000807283, No Iterations 12

Time = 75

smoothSolver:  Solving for Ux, Initial residual = 0.00693772, Final residual = 0.00068927, No Iterations 5
smoothSolver:  Solving for Uy, Initial residual = 0.00380853, Final residual = 0.0003788, No Iterations 5
GAMG:  Solving for p, Initial residual = 0.00773792, Final residual = 0.000398257, No Iterations 3
time step continuity errors : sum local = 0.000864144, global = 4.67309e-05, cumulative = 0.0120095
smoothSolver:  Solving for omega, Initial residual = 0.000767433, Final residual = 7.57342e-05, No Iterations 4
smoothSolver:  Solving for k, Initial residual = 0.0088227, Final residual = 0.000657492, No Iterations 6
ExecutionTime = 0.93 s  ClockTime = 1 s

scalarTransport execute: age
smoothSolver:  Solving for age, Initial residual = 0.00830874, Final residual = 0.000734403, No Iterations 13

Time = 76

smoothSolver:  Solving for Ux, Initial residual = 0.00680893, Final residual = 0.00067776, No Iterations 5
smoothSolver:  Solving for Uy, Initial residual = 0.00370551, Final residual = 0.000367515, No Iterations 5
GAMG:  Solving for p, Initial residual = 0.00756828, Final residual = 0.000748964, No Iterations 2
time step continuity errors : sum local = 0.00162533, global = 9.69498e-05, cumulative = 0.0121064
smoothSolver:  Solving for omega, Initial residual = 0.000750026, Final residual = 7.26864e-05, No Iterations 4
smoothSolver:  Solving for k, Initial residual = 0.00850816, Final residual = 0.000630317, No Iterations 6
ExecutionTime = 0.94 s  ClockTime = 1 s

scalarTransport execute: age
smoothSolver:  Solving for age, Initial residual = 0.00821576, Final residual = 0.000740258, No Iterations 13

Time = 77

smoothSolver:  Solving for Ux, Initial residual = 0.00664146, Final residual = 0.000431644, No Iterations 6
smoothSolver:  Solving for Uy, Initial residual = 0.00362596, Final residual = 0.000359138, No Iterations 5
GAMG:  Solving for p, Initial residual = 0.00762474, Final residual = 0.000517003, No Iterations 3
time step continuity errors : sum local = 0.00112498, global = 1.8678e-05, cumulative = 0.0121251
smoothSolver:  Solving for omega, Initial residual = 0.000735085, Final residual = 6.90938e-05, No Iterations 4
smoothSolver:  Solving for k, Initial residual = 0.00820503, Final residual = 0.00060449, No Iterations 6
ExecutionTime = 0.95 s  ClockTime = 1 s

scalarTransport execute: age
smoothSolver:  Solving for age, Initial residual = 0.00838214, Final residual = 0.00075069, No Iterations 13

Time = 78

smoothSolver:  Solving for Ux, Initial residual = 0.00650612, Final residual = 0.000643693, No Iterations 5
smoothSolver:  Solving for Uy, Initial residual = 0.00361719, Final residual = 0.000356424, No Iterations 5
GAMG:  Solving for p, Initial residual = 0.00726861, Final residual = 0.000717349, No Iterations 2
time step continuity errors : sum local = 0.00155558, global = 9.62899e-05, cumulative = 0.0122214
smoothSolver:  Solving for omega, Initial residual = 0.000713297, Final residual = 6.63969e-05, No Iterations 4
smoothSolver:  Solving for k, Initial residual = 0.00791761, Final residual = 0.000578775, No Iterations 6
ExecutionTime = 0.96 s  ClockTime = 1 s

scalarTransport execute: age
smoothSolver:  Solving for age, Initial residual = 0.00820376, Final residual = 0.00073777, No Iterations 13

Time = 79

smoothSolver:  Solving for Ux, Initial residual = 0.00631414, Final residual = 0.000631245, No Iterations 5
smoothSolver:  Solving for Uy, Initial residual = 0.00346679, Final residual = 0.000340357, No Iterations 5
GAMG:  Solving for p, Initial residual = 0.00709629, Final residual = 0.000482628, No Iterations 3
time step continuity errors : sum local = 0.0010519, global = 4.90939e-06, cumulative = 0.0122263
smoothSolver:  Solving for omega, Initial residual = 0.000689933, Final residual = 6.40571e-05, No Iterations 4
smoothSolver:  Solving for k, Initial residual = 0.00762435, Final residual = 0.000554366, No Iterations 6
ExecutionTime = 0.97 s  ClockTime = 1 s

scalarTransport execute: age
smoothSolver:  Solving for age, Initial residual = 0.00825242, Final residual = 0.000821634, No Iterations 12

Time = 80

smoothSolver:  Solving for Ux, Initial residual = 0.00619434, Final residual = 0.000616525, No Iterations 5
smoothSolver:  Solving for Uy, Initial residual = 0.00346063, Final residual = 0.000336938, No Iterations 5
GAMG:  Solving for p, Initial residual = 0.00697762, Final residual = 0.000655479, No Iterations 2
time step continuity errors : sum local = 0.0014198, global = 8.63941e-05, cumulative = 0.0123127
smoothSolver:  Solving for omega, Initial residual = 0.000676057, Final residual = 6.18441e-05, No Iterations 4
smoothSolver:  Solving for k, Initial residual = 0.00735726, Final residual = 0.000530094, No Iterations 6
ExecutionTime = 0.98 s  ClockTime = 1 s

scalarTransport execute: age
smoothSolver:  Solving for age, Initial residual = 0.00793101, Final residual = 0.000788986, No Iterations 12

Time = 81

smoothSolver:  Solving for Ux, Initial residual = 0.00598259, Final residual = 0.00038878, No Iterations 6
smoothSolver:  Solving for Uy, Initial residual = 0.0033221, Final residual = 0.00032201, No Iterations 5
GAMG:  Solving for p, Initial residual = 0.00691832, Final residual = 0.000444541, No Iterations 3
time step continuity errors : sum local = 0.000965679, global = -3.30612e-06, cumulative = 0.0123094
smoothSolver:  Solving for omega, Initial residual = 0.000663021, Final residual = 5.99203e-05, No Iterations 4
smoothSolver:  Solving for k, Initial residual = 0.00707753, Final residual = 0.000507217, No Iterations 6
ExecutionTime = 1 s  ClockTime = 1 s

scalarTransport execute: age
smoothSolver:  Solving for age, Initial residual = 0.00787978, Final residual = 0.000748735, No Iterations 12

Time = 82

smoothSolver:  Solving for Ux, Initial residual = 0.00577175, Final residual = 0.000568897, No Iterations 5
smoothSolver:  Solving for Uy, Initial residual = 0.00341014, Final residual = 0.000330305, No Iterations 5
GAMG:  Solving for p, Initial residual = 0.00681407, Final residual = 0.000591451, No Iterations 2
time step continuity errors : sum local = 0.00127921, global = 9.30339e-05, cumulative = 0.0124024
smoothSolver:  Solving for omega, Initial residual = 0.000655203, Final residual = 5.77482e-05, No Iterations 4
smoothSolver:  Solving for k, Initial residual = 0.00683218, Final residual = 0.000484396, No Iterations 6
ExecutionTime = 1.01 s  ClockTime = 1 s

scalarTransport execute: age
smoothSolver:  Solving for age, Initial residual = 0.00754749, Final residual = 0.000703317, No Iterations 12

Time = 83

smoothSolver:  Solving for Ux, Initial residual = 0.00555115, Final residual = 0.000549904, No Iterations 5
smoothSolver:  Solving for Uy, Initial residual = 0.00325514, Final residual = 0.000313014, No Iterations 5
GAMG:  Solving for p, Initial residual = 0.00667382, Final residual = 0.000415454, No Iterations 3
time step continuity errors : sum local = 0.000899258, global = -3.3159e-06, cumulative = 0.0123991
smoothSolver:  Solving for omega, Initial residual = 0.000642016, Final residual = 5.57177e-05, No Iterations 4
smoothSolver:  Solving for k, Initial residual = 0.00657003, Final residual = 0.000462854, No Iterations 6
ExecutionTime = 1.02 s  ClockTime = 1 s

scalarTransport execute: age
smoothSolver:  Solving for age, Initial residual = 0.00742147, Final residual = 0.00065699, No Iterations 12

Time = 84

smoothSolver:  Solving for Ux, Initial residual = 0.00537555, Final residual = 0.000524826, No Iterations 5
smoothSolver:  Solving for Uy, Initial residual = 0.00331472, Final residual = 0.000319341, No Iterations 5
GAMG:  Solving for p, Initial residual = 0.00652074, Final residual = 0.000542275, No Iterations 2
time step continuity errors : sum local = 0.00116762, global = 9.2984e-05, cumulative = 0.0124921
smoothSolver:  Solving for omega, Initial residual = 0.000635833, Final residual = 5.34361e-05, No Iterations 4
smoothSolver:  Solving for k, Initial residual = 0.0063429, Final residual = 0.000441158, No Iterations 6
ExecutionTime = 1.03 s  ClockTime = 1 s

scalarTransport execute: age
smoothSolver:  Solving for age, Initial residual = 0.00707432, Final residual = 0.000700771, No Iterations 11

Time = 85

smoothSolver:  Solving for Ux, Initial residual = 0.00512029, Final residual = 0.00050042, No Iterations 5
smoothSolver:  Solving for Uy, Initial residual = 0.00319174, Final residual = 0.000304012, No Iterations 5
GAMG:  Solving for p, Initial residual = 0.00634983, Final residual = 0.000388048, No Iterations 3
time step continuity errors : sum local = 0.000835859, global = -4.41259e-06, cumulative = 0.0124877
smoothSolver:  Solving for omega, Initial residual = 0.000619589, Final residual = 5.11676e-05, No Iterations 4
smoothSolver:  Solving for k, Initial residual = 0.00608808, Final residual = 0.000420509, No Iterations 6
ExecutionTime = 1.04 s  ClockTime = 1 s

scalarTransport execute: age
smoothSolver:  Solving for age, Initial residual = 0.00691775, Final residual = 0.000658703, No Iterations 11

Time = 86

smoothSolver:  Solving for Ux, Initial residual = 0.00492566, Final residual = 0.000473511, No Iterations 5
smoothSolver:  Solving for Uy, Initial residual = 0.00326505, Final residual = 0.000311896, No Iterations 5
GAMG:  Solving for p, Initial residual = 0.00615298, Final residual = 0.000502271, No Iterations 2
time step continuity errors : sum local = 0.00107514, global = 9.25251e-05, cumulative = 0.0125802
smoothSolver:  Solving for omega, Initial residual = 0.000611434, Final residual = 4.87753e-05, No Iterations 4
smoothSolver:  Solving for k, Initial residual = 0.00587437, Final residual = 0.000399882, No Iterations 6
ExecutionTime = 1.05 s  ClockTime = 1 s

scalarTransport execute: age
smoothSolver:  Solving for age, Initial residual = 0.00658276, Final residual = 0.000615606, No Iterations 11

Time = 87

smoothSolver:  Solving for Ux, Initial residual = 0.00465193, Final residual = 0.000447419, No Iterations 5
smoothSolver:  Solving for Uy, Initial residual = 0.00314437, Final residual = 0.000296702, No Iterations 5
GAMG:  Solving for p, Initial residual = 0.00595972, Final residual = 0.000587636, No Iterations 2
time step continuity errors : sum local = 0.00125663, global = 0.000189926, cumulative = 0.0127701
smoothSolver:  Solving for omega, Initial residual = 0.000587782, Final residual = 4.65521e-05, No Iterations 4
smoothSolver:  Solving for k, Initial residual = 0.00563953, Final residual = 0.000380017, No Iterations 6
ExecutionTime = 1.06 s  ClockTime = 1 s

scalarTransport execute: age
smoothSolver:  Solving for age, Initial residual = 0.00628415, Final residual = 0.000574962, No Iterations 11

Time = 88

smoothSolver:  Solving for Ux, Initial residual = 0.00438705, Final residual = 0.000416842, No Iterations 5
smoothSolver:  Solving for Uy, Initial residual = 0.00313926, Final residual = 0.000292819, No Iterations 5
GAMG:  Solving for p, Initial residual = 0.00579413, Final residual = 0.000315415, No Iterations 3
time step continuity errors : sum local = 0.00067333, global = -3.82838e-06, cumulative = 0.0127663
smoothSolver:  Solving for omega, Initial residual = 0.000576655, Final residual = 4.40187e-05, No Iterations 4
smoothSolver:  Solving for k, Initial residual = 0.00540321, Final residual = 0.000360819, No Iterations 6
ExecutionTime = 1.08 s  ClockTime = 1 s

scalarTransport execute: age
smoothSolver:  Solving for age, Initial residual = 0.00616936, Final residual = 0.000549276, No Iterations 11

Time = 89

smoothSolver:  Solving for Ux, Initial residual = 0.00424853, Final residual = 0.000395933, No Iterations 5
smoothSolver:  Solving for Uy, Initial residual = 0.00319094, Final residual = 0.000302248, No Iterations 5
GAMG:  Solving for p, Initial residual = 0.00563859, Final residual = 0.000458995, No Iterations 2
time step continuity errors : sum local = 0.000970001, global = 8.33259e-05, cumulative = 0.0128496
smoothSolver:  Solving for omega, Initial residual = 0.000573977, Final residual = 4.20246e-05, No Iterations 4
smoothSolver:  Solving for k, Initial residual = 0.005214, Final residual = 0.000342062, No Iterations 6
ExecutionTime = 1.09 s  ClockTime = 1 s

scalarTransport execute: age
smoothSolver:  Solving for age, Initial residual = 0.00591468, Final residual = 0.000526097, No Iterations 11

Time = 90

smoothSolver:  Solving for Ux, Initial residual = 0.00393464, Final residual = 0.000368603, No Iterations 5
smoothSolver:  Solving for Uy, Initial residual = 0.00308113, Final residual = 0.000289274, No Iterations 5
GAMG:  Solving for p, Initial residual = 0.0054228, Final residual = 0.000521456, No Iterations 2
time step continuity errors : sum local = 0.00110133, global = 0.000178042, cumulative = 0.0130277
smoothSolver:  Solving for omega, Initial residual = 0.000542057, Final residual = 4.00791e-05, No Iterations 4
smoothSolver:  Solving for k, Initial residual = 0.00498909, Final residual = 0.000324048, No Iterations 6
ExecutionTime = 1.1 s  ClockTime = 1 s

scalarTransport execute: age
smoothSolver:  Solving for age, Initial residual = 0.00565801, Final residual = 0.000508129, No Iterations 11

Time = 91

smoothSolver:  Solving for Ux, Initial residual = 0.00368786, Final residual = 0.000339951, No Iterations 5
smoothSolver:  Solving for Uy, Initial residual = 0.00304992, Final residual = 0.000281401, No Iterations 5
GAMG:  Solving for p, Initial residual = 0.00526328, Final residual = 0.000315525, No Iterations 3
time step continuity errors : sum local = 0.00066531, global = -4.26448e-06, cumulative = 0.0130234
smoothSolver:  Solving for omega, Initial residual = 0.000532184, Final residual = 3.78703e-05, No Iterations 4
smoothSolver:  Solving for k, Initial residual = 0.0047566, Final residual = 0.000306754, No Iterations 6
ExecutionTime = 1.11 s  ClockTime = 1 s

scalarTransport execute: age
smoothSolver:  Solving for age, Initial residual = 0.00550225, Final residual = 0.000494279, No Iterations 11

Time = 92

smoothSolver:  Solving for Ux, Initial residual = 0.00355267, Final residual = 0.000317598, No Iterations 5
smoothSolver:  Solving for Uy, Initial residual = 0.00308355, Final residual = 0.00028638, No Iterations 5
GAMG:  Solving for p, Initial residual = 0.00515081, Final residual = 0.000443271, No Iterations 2
time step continuity errors : sum local = 0.000924735, global = 7.36103e-05, cumulative = 0.013097
smoothSolver:  Solving for omega, Initial residual = 0.000531021, Final residual = 3.6578e-05, No Iterations 4
smoothSolver:  Solving for k, Initial residual = 0.00457429, Final residual = 0.000450923, No Iterations 5
ExecutionTime = 1.12 s  ClockTime = 1 s

scalarTransport execute: age
smoothSolver:  Solving for age, Initial residual = 0.00529263, Final residual = 0.000483597, No Iterations 11

Time = 93

smoothSolver:  Solving for Ux, Initial residual = 0.00327112, Final residual = 0.000293002, No Iterations 5
smoothSolver:  Solving for Uy, Initial residual = 0.00296331, Final residual = 0.000272919, No Iterations 5
GAMG:  Solving for p, Initial residual = 0.00499793, Final residual = 0.000496758, No Iterations 2
time step continuity errors : sum local = 0.00103699, global = 0.00016573, cumulative = 0.0132627
smoothSolver:  Solving for omega, Initial residual = 0.000499137, Final residual = 3.51006e-05, No Iterations 4
smoothSolver:  Solving for k, Initial residual = 0.0043615, Final residual = 0.000427358, No Iterations 5
ExecutionTime = 1.13 s  ClockTime = 1 s

scalarTransport execute: age
smoothSolver:  Solving for age, Initial residual = 0.00506385, Final residual = 0.000475888, No Iterations 11

Time = 94

smoothSolver:  Solving for Ux, Initial residual = 0.00306755, Final residual = 0.000267868, No Iterations 5
smoothSolver:  Solving for Uy, Initial residual = 0.00290746, Final residual = 0.000261791, No Iterations 5
GAMG:  Solving for p, Initial residual = 0.00488091, Final residual = 0.000322652, No Iterations 3
time step continuity errors : sum local = 0.000672745, global = -6.83378e-06, cumulative = 0.0132559
smoothSolver:  Solving for omega, Initial residual = 0.00049203, Final residual = 3.34248e-05, No Iterations 4
smoothSolver:  Solving for k, Initial residual = 0.00413871, Final residual = 0.000404829, No Iterations 5
ExecutionTime = 1.14 s  ClockTime = 1 s

scalarTransport execute: age
smoothSolver:  Solving for age, Initial residual = 0.00491435, Final residual = 0.000468903, No Iterations 11

Time = 95

smoothSolver:  Solving for Ux, Initial residual = 0.00297404, Final residual = 0.000248282, No Iterations 5
smoothSolver:  Solving for Uy, Initial residual = 0.00289921, Final residual = 0.000261282, No Iterations 5
GAMG:  Solving for p, Initial residual = 0.00478998, Final residual = 0.000417727, No Iterations 2
time step continuity errors : sum local = 0.000862254, global = 5.71602e-05, cumulative = 0.0133131
smoothSolver:  Solving for omega, Initial residual = 0.000483911, Final residual = 3.25225e-05, No Iterations 4
smoothSolver:  Solving for k, Initial residual = 0.00396752, Final residual = 0.000383527, No Iterations 5
ExecutionTime = 1.15 s  ClockTime = 1 s

scalarTransport execute: age
smoothSolver:  Solving for age, Initial residual = 0.00473328, Final residual = 0.000464476, No Iterations 11

Time = 96

smoothSolver:  Solving for Ux, Initial residual = 0.00273845, Final residual = 0.00022827, No Iterations 5
[...]

Time = 594

smoothSolver:  Solving for Ux, Initial residual = 8.00932e-07, Final residual = 5.19675e-08, No Iterations 5
smoothSolver:  Solving for Uy, Initial residual = 5.7062e-07, Final residual = 4.80268e-08, No Iterations 5
GAMG:  Solving for p, Initial residual = 1.63203e-06, Final residual = 8.83525e-08, No Iterations 3
time step continuity errors : sum local = 2.08571e-07, global = 1.03129e-08, cumulative = 0.0176739
smoothSolver:  Solving for omega, Initial residual = 8.27165e-08, Final residual = 9.32873e-09, No Iterations 3
smoothSolver:  Solving for k, Initial residual = 1.29874e-07, Final residual = 8.97336e-09, No Iterations 5
ExecutionTime = 6.94 s  ClockTime = 7 s

scalarTransport execute: age
smoothSolver:  Solving for age, Initial residual = 0.000340794, Final residual = 3.30646e-05, No Iterations 14

Time = 595

smoothSolver:  Solving for Ux, Initial residual = 7.82947e-07, Final residual = 5.08017e-08, No Iterations 5
smoothSolver:  Solving for Uy, Initial residual = 5.57982e-07, Final residual = 4.69909e-08, No Iterations 5
GAMG:  Solving for p, Initial residual = 1.59602e-06, Final residual = 8.65089e-08, No Iterations 3
time step continuity errors : sum local = 2.04219e-07, global = 1.00538e-08, cumulative = 0.0176739
smoothSolver:  Solving for omega, Initial residual = 8.11475e-08, Final residual = 9.17005e-09, No Iterations 3
smoothSolver:  Solving for k, Initial residual = 1.27347e-07, Final residual = 8.80182e-09, No Iterations 5
ExecutionTime = 6.95 s  ClockTime = 7 s

scalarTransport execute: age
smoothSolver:  Solving for age, Initial residual = 0.000340186, Final residual = 3.30055e-05, No Iterations 14

Time = 596

smoothSolver:  Solving for Ux, Initial residual = 7.65336e-07, Final residual = 4.96601e-08, No Iterations 5
smoothSolver:  Solving for Uy, Initial residual = 5.45602e-07, Final residual = 4.5976e-08, No Iterations 5
GAMG:  Solving for p, Initial residual = 1.56081e-06, Final residual = 8.47046e-08, No Iterations 3
time step continuity errors : sum local = 1.9996e-07, global = 9.80093e-09, cumulative = 0.0176739
smoothSolver:  Solving for omega, Initial residual = 7.95562e-08, Final residual = 9.00542e-09, No Iterations 3
smoothSolver:  Solving for k, Initial residual = 1.24861e-07, Final residual = 8.63293e-09, No Iterations 5
ExecutionTime = 6.96 s  ClockTime = 7 s

scalarTransport execute: age
smoothSolver:  Solving for age, Initial residual = 0.000339581, Final residual = 3.29467e-05, No Iterations 14

Time = 597

smoothSolver:  Solving for Ux, Initial residual = 7.48084e-07, Final residual = 4.85419e-08, No Iterations 5
smoothSolver:  Solving for Uy, Initial residual = 5.33472e-07, Final residual = 4.49818e-08, No Iterations 5
GAMG:  Solving for p, Initial residual = 1.52631e-06, Final residual = 8.29369e-08, No Iterations 3
time step continuity errors : sum local = 1.95787e-07, global = 9.55428e-09, cumulative = 0.0176739
smoothSolver:  Solving for omega, Initial residual = 7.7958e-08, Final residual = 8.83782e-09, No Iterations 3
smoothSolver:  Solving for k, Initial residual = 1.22417e-07, Final residual = 8.4668e-09, No Iterations 5
ExecutionTime = 6.97 s  ClockTime = 7 s

scalarTransport execute: age
smoothSolver:  Solving for age, Initial residual = 0.000338978, Final residual = 3.2888e-05, No Iterations 14

Time = 598

smoothSolver:  Solving for Ux, Initial residual = 7.31184e-07, Final residual = 4.74467e-08, No Iterations 5
smoothSolver:  Solving for Uy, Initial residual = 5.2159e-07, Final residual = 4.4008e-08, No Iterations 5
GAMG:  Solving for p, Initial residual = 1.49256e-06, Final residual = 8.1204e-08, No Iterations 3
time step continuity errors : sum local = 1.91696e-07, global = 9.31397e-09, cumulative = 0.017674
smoothSolver:  Solving for omega, Initial residual = 7.63637e-08, Final residual = 8.66913e-09, No Iterations 3
smoothSolver:  Solving for k, Initial residual = 1.20019e-07, Final residual = 8.30347e-09, No Iterations 5
ExecutionTime = 6.98 s  ClockTime = 7 s

scalarTransport execute: age
smoothSolver:  Solving for age, Initial residual = 0.000338377, Final residual = 3.28295e-05, No Iterations 14

Time = 599

smoothSolver:  Solving for Ux, Initial residual = 7.14636e-07, Final residual = 4.63736e-08, No Iterations 5
smoothSolver:  Solving for Uy, Initial residual = 5.09954e-07, Final residual = 4.3055e-08, No Iterations 5
GAMG:  Solving for p, Initial residual = 1.45956e-06, Final residual = 7.95035e-08, No Iterations 3
time step continuity errors : sum local = 1.87682e-07, global = 9.07998e-09, cumulative = 0.017674
smoothSolver:  Solving for omega, Initial residual = 7.47807e-08, Final residual = 8.50054e-09, No Iterations 3
smoothSolver:  Solving for k, Initial residual = 1.17665e-07, Final residual = 8.14298e-09, No Iterations 5
ExecutionTime = 6.99 s  ClockTime = 7 s

scalarTransport execute: age
smoothSolver:  Solving for age, Initial residual = 0.000337778, Final residual = 3.27713e-05, No Iterations 14

Time = 600

smoothSolver:  Solving for Ux, Initial residual = 6.9843e-07, Final residual = 4.53225e-08, No Iterations 5
smoothSolver:  Solving for Uy, Initial residual = 4.98559e-07, Final residual = 4.2122e-08, No Iterations 5
GAMG:  Solving for p, Initial residual = 1.42725e-06, Final residual = 7.7836e-08, No Iterations 3
time step continuity errors : sum local = 1.83746e-07, global = 8.85223e-09, cumulative = 0.017674
smoothSolver:  Solving for omega, Initial residual = 7.3214e-08, Final residual = 8.33288e-09, No Iterations 3
smoothSolver:  Solving for k, Initial residual = 1.15355e-07, Final residual = 7.98526e-09, No Iterations 5
ExecutionTime = 7.01 s  ClockTime = 7 s

scalarTransport execute: age
smoothSolver:  Solving for age, Initial residual = 0.000337181, Final residual = 3.27132e-05, No Iterations 14

Time = 601

smoothSolver:  Solving for Ux, Initial residual = 6.82566e-07, Final residual = 4.42931e-08, No Iterations 5
smoothSolver:  Solving for Uy, Initial residual = 4.87407e-07, Final residual = 4.12087e-08, No Iterations 5
GAMG:  Solving for p, Initial residual = 1.39566e-06, Final residual = 7.62021e-08, No Iterations 3
time step continuity errors : sum local = 1.79889e-07, global = 8.63058e-09, cumulative = 0.017674
smoothSolver:  Solving for omega, Initial residual = 7.16672e-08, Final residual = 8.16661e-09, No Iterations 3
smoothSolver:  Solving for k, Initial residual = 1.13089e-07, Final residual = 7.83029e-09, No Iterations 5
ExecutionTime = 7.02 s  ClockTime = 7 s

scalarTransport execute: age
smoothSolver:  Solving for age, Initial residual = 0.000336586, Final residual = 3.26553e-05, No Iterations 14

Time = 602

smoothSolver:  Solving for Ux, Initial residual = 6.6704e-07, Final residual = 4.32855e-08, No Iterations 5
smoothSolver:  Solving for Uy, Initial residual = 4.76492e-07, Final residual = 4.03148e-08, No Iterations 5
GAMG:  Solving for p, Initial residual = 1.36474e-06, Final residual = 7.46018e-08, No Iterations 3
time step continuity errors : sum local = 1.76111e-07, global = 8.41478e-09, cumulative = 0.017674
smoothSolver:  Solving for omega, Initial residual = 7.01427e-08, Final residual = 8.00213e-09, No Iterations 3
smoothSolver:  Solving for k, Initial residual = 1.10866e-07, Final residual = 7.678e-09, No Iterations 5
ExecutionTime = 7.03 s  ClockTime = 7 s

scalarTransport execute: age
smoothSolver:  Solving for age, Initial residual = 0.000335993, Final residual = 3.25976e-05, No Iterations 14

Time = 603

smoothSolver:  Solving for Ux, Initial residual = 6.51847e-07, Final residual = 4.22994e-08, No Iterations 5
smoothSolver:  Solving for Uy, Initial residual = 4.65811e-07, Final residual = 3.944e-08, No Iterations 5
GAMG:  Solving for p, Initial residual = 1.33449e-06, Final residual = 7.30344e-08, No Iterations 3
time step continuity errors : sum local = 1.72411e-07, global = 8.20456e-09, cumulative = 0.017674
smoothSolver:  Solving for omega, Initial residual = 6.86427e-08, Final residual = 7.83975e-09, No Iterations 3
smoothSolver:  Solving for k, Initial residual = 1.08686e-07, Final residual = 7.52835e-09, No Iterations 5
ExecutionTime = 7.04 s  ClockTime = 7 s

scalarTransport execute: age
smoothSolver:  Solving for age, Initial residual = 0.000335402, Final residual = 3.25401e-05, No Iterations 14

Time = 604

smoothSolver:  Solving for Ux, Initial residual = 6.36989e-07, Final residual = 4.13347e-08, No Iterations 5
smoothSolver:  Solving for Uy, Initial residual = 4.55362e-07, Final residual = 3.85836e-08, No Iterations 5
GAMG:  Solving for p, Initial residual = 1.30488e-06, Final residual = 7.14992e-08, No Iterations 3
time step continuity errors : sum local = 1.68787e-07, global = 7.99961e-09, cumulative = 0.017674
smoothSolver:  Solving for omega, Initial residual = 6.71692e-08, Final residual = 7.67966e-09, No Iterations 3
smoothSolver:  Solving for k, Initial residual = 1.06549e-07, Final residual = 7.38134e-09, No Iterations 5
ExecutionTime = 7.05 s  ClockTime = 7 s

scalarTransport execute: age
smoothSolver:  Solving for age, Initial residual = 0.000334812, Final residual = 3.24828e-05, No Iterations 14

Time = 605

smoothSolver:  Solving for Ux, Initial residual = 6.22456e-07, Final residual = 4.03911e-08, No Iterations 5
smoothSolver:  Solving for Uy, Initial residual = 4.45136e-07, Final residual = 3.77451e-08, No Iterations 5
GAMG:  Solving for p, Initial residual = 1.27588e-06, Final residual = 1.27508e-07, No Iterations 2
time step continuity errors : sum local = 3.01006e-07, global = 1.40752e-08, cumulative = 0.017674
smoothSolver:  Solving for omega, Initial residual = 6.83073e-08, Final residual = 7.53425e-09, No Iterations 3
smoothSolver:  Solving for k, Initial residual = 1.06226e-07, Final residual = 7.27397e-09, No Iterations 5
ExecutionTime = 7.06 s  ClockTime = 7 s

scalarTransport execute: age
smoothSolver:  Solving for age, Initial residual = 0.000334234, Final residual = 3.24275e-05, No Iterations 14

Time = 606

smoothSolver:  Solving for Ux, Initial residual = 6.2717e-07, Final residual = 4.14382e-08, No Iterations 5
smoothSolver:  Solving for Uy, Initial residual = 4.30845e-07, Final residual = 3.614e-08, No Iterations 5
GAMG:  Solving for p, Initial residual = 1.30458e-06, Final residual = 8.2457e-08, No Iterations 3
time step continuity errors : sum local = 1.94655e-07, global = 7.69577e-09, cumulative = 0.017674
smoothSolver:  Solving for omega, Initial residual = 6.93102e-08, Final residual = 7.29891e-09, No Iterations 3
smoothSolver:  Solving for k, Initial residual = 1.02815e-07, Final residual = 7.08302e-09, No Iterations 5
ExecutionTime = 7.07 s  ClockTime = 7 s

scalarTransport execute: age
smoothSolver:  Solving for age, Initial residual = 0.000333638, Final residual = 3.23683e-05, No Iterations 14

Time = 607

smoothSolver:  Solving for Ux, Initial residual = 5.96725e-07, Final residual = 3.81488e-08, No Iterations 5
smoothSolver:  Solving for Uy, Initial residual = 4.18153e-07, Final residual = 3.55775e-08, No Iterations 5
GAMG:  Solving for p, Initial residual = 1.24299e-06, Final residual = 1.1268e-07, No Iterations 2
time step continuity errors : sum local = 2.66003e-07, global = 1.42398e-08, cumulative = 0.017674
smoothSolver:  Solving for omega, Initial residual = 6.90676e-08, Final residual = 7.297e-09, No Iterations 3
smoothSolver:  Solving for k, Initial residual = 1.02302e-07, Final residual = 6.98149e-09, No Iterations 5
ExecutionTime = 7.09 s  ClockTime = 7 s

scalarTransport execute: age
smoothSolver:  Solving for age, Initial residual = 0.000333056, Final residual = 3.23132e-05, No Iterations 14

Time = 608

smoothSolver:  Solving for Ux, Initial residual = 5.95724e-07, Final residual = 3.9032e-08, No Iterations 5
smoothSolver:  Solving for Uy, Initial residual = 4.13659e-07, Final residual = 3.46598e-08, No Iterations 5
GAMG:  Solving for p, Initial residual = 1.22253e-06, Final residual = 8.2238e-08, No Iterations 3
time step continuity errors : sum local = 1.94138e-07, global = 5.67906e-09, cumulative = 0.017674
smoothSolver:  Solving for omega, Initial residual = 6.85092e-08, Final residual = 6.97581e-09, No Iterations 3
smoothSolver:  Solving for k, Initial residual = 9.85504e-08, Final residual = 6.79713e-09, No Iterations 5
ExecutionTime = 7.1 s  ClockTime = 7 s

scalarTransport execute: age
smoothSolver:  Solving for age, Initial residual = 0.000332475, Final residual = 3.22551e-05, No Iterations 14

Time = 609

smoothSolver:  Solving for Ux, Initial residual = 5.62684e-07, Final residual = 3.60426e-08, No Iterations 5
smoothSolver:  Solving for Uy, Initial residual = 4.10904e-07, Final residual = 3.48816e-08, No Iterations 5
GAMG:  Solving for p, Initial residual = 1.19759e-06, Final residual = 1.08312e-07, No Iterations 2
time step continuity errors : sum local = 2.55692e-07, global = 1.19762e-08, cumulative = 0.0176741
smoothSolver:  Solving for omega, Initial residual = 6.6287e-08, Final residual = 6.98154e-09, No Iterations 3
smoothSolver:  Solving for k, Initial residual = 9.81978e-08, Final residual = 6.70284e-09, No Iterations 5
ExecutionTime = 7.11 s  ClockTime = 7 s

scalarTransport execute: age
smoothSolver:  Solving for age, Initial residual = 0.000331898, Final residual = 3.21999e-05, No Iterations 14

Time = 610

smoothSolver:  Solving for Ux, Initial residual = 5.62983e-07, Final residual = 3.69204e-08, No Iterations 5
smoothSolver:  Solving for Uy, Initial residual = 4.02789e-07, Final residual = 3.36853e-08, No Iterations 5
GAMG:  Solving for p, Initial residual = 1.17928e-06, Final residual = 7.37077e-08, No Iterations 3
time step continuity errors : sum local = 1.74001e-07, global = 7.03224e-09, cumulative = 0.0176741
smoothSolver:  Solving for omega, Initial residual = 6.43124e-08, Final residual = 6.68918e-09, No Iterations 3
smoothSolver:  Solving for k, Initial residual = 9.47546e-08, Final residual = 6.53132e-09, No Iterations 5
ExecutionTime = 7.12 s  ClockTime = 7 s

scalarTransport execute: age
smoothSolver:  Solving for age, Initial residual = 0.000331316, Final residual = 3.2142e-05, No Iterations 14

Time = 611

smoothSolver:  Solving for Ux, Initial residual = 5.37517e-07, Final residual = 3.4319e-08, No Iterations 5
smoothSolver:  Solving for Uy, Initial residual = 3.93586e-07, Final residual = 3.35701e-08, No Iterations 5
GAMG:  Solving for p, Initial residual = 1.13316e-06, Final residual = 1.0436e-07, No Iterations 2
time step continuity errors : sum local = 2.46363e-07, global = 1.18233e-08, cumulative = 0.0176741
smoothSolver:  Solving for omega, Initial residual = 6.24898e-08, Final residual = 6.68226e-09, No Iterations 3
smoothSolver:  Solving for k, Initial residual = 9.41633e-08, Final residual = 6.43902e-09, No Iterations 5
ExecutionTime = 7.13 s  ClockTime = 7 s

scalarTransport execute: age
smoothSolver:  Solving for age, Initial residual = 0.000330744, Final residual = 3.20872e-05, No Iterations 14

Time = 612

smoothSolver:  Solving for Ux, Initial residual = 5.38316e-07, Final residual = 3.52791e-08, No Iterations 5
smoothSolver:  Solving for Uy, Initial residual = 3.83843e-07, Final residual = 3.22226e-08, No Iterations 5
GAMG:  Solving for p, Initial residual = 1.12113e-06, Final residual = 7.15965e-08, No Iterations 3
time step continuity errors : sum local = 1.69017e-07, global = 6.43444e-09, cumulative = 0.0176741
smoothSolver:  Solving for omega, Initial residual = 6.11597e-08, Final residual = 6.41092e-09, No Iterations 3
smoothSolver:  Solving for k, Initial residual = 9.10063e-08, Final residual = 6.27338e-09, No Iterations 5
ExecutionTime = 7.14 s  ClockTime = 7 s

scalarTransport execute: age
smoothSolver:  Solving for age, Initial residual = 0.000330166, Final residual = 3.20296e-05, No Iterations 14

Time = 613

smoothSolver:  Solving for Ux, Initial residual = 5.13572e-07, Final residual = 3.27769e-08, No Iterations 5
smoothSolver:  Solving for Uy, Initial residual = 3.73929e-07, Final residual = 3.19275e-08, No Iterations 5
GAMG:  Solving for p, Initial residual = 1.08005e-06, Final residual = 9.91593e-08, No Iterations 2
time step continuity errors : sum local = 2.34085e-07, global = 1.10248e-08, cumulative = 0.0176741
smoothSolver:  Solving for omega, Initial residual = 5.95471e-08, Final residual = 6.40721e-09, No Iterations 3
smoothSolver:  Solving for k, Initial residual = 9.04433e-08, Final residual = 6.1849e-09, No Iterations 5
ExecutionTime = 7.15 s  ClockTime = 7 s

scalarTransport execute: age
smoothSolver:  Solving for age, Initial residual = 0.000329597, Final residual = 3.19751e-05, No Iterations 14

Time = 614

smoothSolver:  Solving for Ux, Initial residual = 5.13412e-07, Final residual = 3.36612e-08, No Iterations 5
smoothSolver:  Solving for Uy, Initial residual = 3.66344e-07, Final residual = 3.07938e-08, No Iterations 5
GAMG:  Solving for p, Initial residual = 1.06878e-06, Final residual = 6.81508e-08, No Iterations 3
time step continuity errors : sum local = 1.60883e-07, global = 6.01195e-09, cumulative = 0.0176741
smoothSolver:  Solving for omega, Initial residual = 5.84435e-08, Final residual = 6.1532e-09, No Iterations 3
smoothSolver:  Solving for k, Initial residual = 8.75165e-08, Final residual = 9.92631e-09, No Iterations 4
ExecutionTime = 7.17 s  ClockTime = 7 s

scalarTransport execute: age
smoothSolver:  Solving for age, Initial residual = 0.000329024, Final residual = 3.1918e-05, No Iterations 14

Time = 615

smoothSolver:  Solving for Ux, Initial residual = 4.90123e-07, Final residual = 3.13391e-08, No Iterations 5
smoothSolver:  Solving for Uy, Initial residual = 3.57974e-07, Final residual = 3.05948e-08, No Iterations 5
GAMG:  Solving for p, Initial residual = 1.03133e-06, Final residual = 9.45446e-08, No Iterations 2
time step continuity errors : sum local = 2.23191e-07, global = 1.03918e-08, cumulative = 0.0176741
smoothSolver:  Solving for omega, Initial residual = 5.68763e-08, Final residual = 6.14149e-09, No Iterations 3
smoothSolver:  Solving for k, Initial residual = 8.72201e-08, Final residual = 9.82579e-09, No Iterations 4
ExecutionTime = 7.18 s  ClockTime = 7 s

scalarTransport execute: age
smoothSolver:  Solving for age, Initial residual = 0.000328458, Final residual = 3.18638e-05, No Iterations 14

Time = 616

smoothSolver:  Solving for Ux, Initial residual = 4.90726e-07, Final residual = 3.22274e-08, No Iterations 5
smoothSolver:  Solving for Uy, Initial residual = 3.50227e-07, Final residual = 2.94466e-08, No Iterations 5
GAMG:  Solving for p, Initial residual = 1.02126e-06, Final residual = 6.52125e-08, No Iterations 3
time step continuity errors : sum local = 1.53947e-07, global = 5.72412e-09, cumulative = 0.0176741
smoothSolver:  Solving for omega, Initial residual = 5.5769e-08, Final residual = 5.88973e-09, No Iterations 3
smoothSolver:  Solving for k, Initial residual = 8.46435e-08, Final residual = 9.60492e-09, No Iterations 4
ExecutionTime = 7.19 s  ClockTime = 7 s

scalarTransport execute: age
smoothSolver:  Solving for age, Initial residual = 0.000327888, Final residual = 3.18073e-05, No Iterations 14

Time = 617

smoothSolver:  Solving for Ux, Initial residual = 4.68548e-07, Final residual = 2.99908e-08, No Iterations 5
smoothSolver:  Solving for Uy, Initial residual = 3.42116e-07, Final residual = 2.92583e-08, No Iterations 5
GAMG:  Solving for p, Initial residual = 9.87361e-07, Final residual = 9.04882e-08, No Iterations 2
time step continuity errors : sum local = 2.13615e-07, global = 9.87201e-09, cumulative = 0.0176741
smoothSolver:  Solving for omega, Initial residual = 5.4383e-08, Final residual = 5.89155e-09, No Iterations 3
smoothSolver:  Solving for k, Initial residual = 8.42839e-08, Final residual = 9.50013e-09, No Iterations 4
ExecutionTime = 7.2 s  ClockTime = 7 s


SIMPLE solution converged in 617 iterations

scalarTransport execute: age
smoothSolver:  Solving for age, Initial residual = 0.000327325, Final residual = 3.17535e-05, No Iterations 14

End

