/*---------------------------------------------------------------------------*\
| =========                 |                                                 |
| \\      /  F ield         | OpenFOAM: The Open Source CFD Toolbox           |
|  \\    /   O peration     | Version:  v2012                                 |
|   \\  /    A nd           | Website:  www.openfoam.com                      |
|    \\/     M anipulation  |                                                 |
\*---------------------------------------------------------------------------*/
Build  : _7bdb509494-20201222 OPENFOAM=2012
Arch   : "LSB;label=32;scalar=64"
Exec   : simpleFoam
Date   : Mar 13 2023
Time   : 13:39:30
Host   : johnsPC
PID    : 2131
I/O    : uncollated
Case   : /mnt/c/Users/johnw/Documents/GitHub/gnnUnetAge/tests/extrap
nProcs : 1
trapFpe: Floating point exception trapping enabled (FOAM_SIGFPE).
fileModificationChecking : Monitoring run-time modified files using timeStampMaster (fileModificationSkew 5, maxFileModificationPolls 20)
allowSystemOperations : Allowing user-supplied system call operations

// * * * * * * * * * * * * * * * * * * * * * * * * * * * * * * * * * * * * * //
Create time

Create mesh for time = 0


SIMPLE: convergence criteria
    field p	 tolerance 1e-06
    field U	 tolerance 1e-06
    field "(k|epsilon|omega|f|v2|age)"	 tolerance 1e-05

Reading field p

Reading field U

Reading/calculating face flux field phi

Selecting incompressible transport model Newtonian
Selecting turbulence model type RAS
Selecting RAS turbulence model kOmegaSST
Selecting patchDistMethod meshWave
RAS
{
    RASModel        kOmegaSST;
    turbulence      on;
    printCoeffs     on;
    alphaK1         0.85;
    alphaK2         1;
    alphaOmega1     0.5;
    alphaOmega2     0.856;
    gamma1          0.555556;
    gamma2          0.44;
    beta1           0.075;
    beta2           0.0828;
    betaStar        0.09;
    a1              0.31;
    b1              1;
    c1              10;
    F3              false;
    decayControl    false;
    kInf            0;
    omegaInf        0;
}

No MRF models present

No finite volume options present

Starting time loop

Selecting finite volume options type scalarSemiImplicitSource
    Source: unitySource
    - selecting all cells
    - selected 16312 cell(s) with volume 0.3194
Time = 1

smoothSolver:  Solving for Ux, Initial residual = 0, Final residual = 0, No Iterations 0
smoothSolver:  Solving for Uy, Initial residual = 1, Final residual = 0.0735751, No Iterations 3
GAMG:  Solving for p, Initial residual = 1, Final residual = 0.0830053, No Iterations 7
GAMG:  Solving for p, Initial residual = 0.991391, Final residual = 0.0435743, No Iterations 1
GAMG:  Solving for p, Initial residual = 0.0724127, Final residual = 0.00636386, No Iterations 1
time step continuity errors : sum local = 12.5691, global = -0.0235622, cumulative = -0.0235622
smoothSolver:  Solving for omega, Initial residual = 0.882692, Final residual = 0.0477952, No Iterations 4
smoothSolver:  Solving for k, Initial residual = 1, Final residual = 0.0415371, No Iterations 2
ExecutionTime = 0.2 s  ClockTime = 1 s

scalarTransport execute: age
smoothSolver:  Solving for age, Initial residual = 1, Final residual = 0.0884869, No Iterations 21

Time = 2

smoothSolver:  Solving for Ux, Initial residual = 0.637032, Final residual = 0.0255839, No Iterations 2
smoothSolver:  Solving for Uy, Initial residual = 0.644497, Final residual = 0.0245823, No Iterations 2
GAMG:  Solving for p, Initial residual = 0.148045, Final residual = 0.00648692, No Iterations 2
GAMG:  Solving for p, Initial residual = 0.154009, Final residual = 0.00963442, No Iterations 1
GAMG:  Solving for p, Initial residual = 0.0445848, Final residual = 0.0036104, No Iterations 1
time step continuity errors : sum local = 2.62405, global = -0.00382457, cumulative = -0.0273868
smoothSolver:  Solving for omega, Initial residual = 0.842491, Final residual = 0.0339359, No Iterations 1
smoothSolver:  Solving for k, Initial residual = 0.558142, Final residual = 0.0217928, No Iterations 2
ExecutionTime = 0.25 s  ClockTime = 1 s

scalarTransport execute: age
smoothSolver:  Solving for age, Initial residual = 0.641547, Final residual = 0.0483852, No Iterations 7

Time = 3

smoothSolver:  Solving for Ux, Initial residual = 0.606096, Final residual = 0.0447462, No Iterations 2
smoothSolver:  Solving for Uy, Initial residual = 0.608776, Final residual = 0.0419066, No Iterations 2
GAMG:  Solving for p, Initial residual = 0.0339647, Final residual = 0.00205822, No Iterations 2
GAMG:  Solving for p, Initial residual = 0.0564889, Final residual = 0.00349266, No Iterations 1
GAMG:  Solving for p, Initial residual = 0.0244145, Final residual = 0.0017455, No Iterations 1
time step continuity errors : sum local = 2.30912, global = 0.0193516, cumulative = -0.00803516
smoothSolver:  Solving for omega, Initial residual = 0.553633, Final residual = 0.0446856, No Iterations 1
smoothSolver:  Solving for k, Initial residual = 0.54012, Final residual = 0.0326575, No Iterations 2
ExecutionTime = 0.3 s  ClockTime = 1 s

scalarTransport execute: age
smoothSolver:  Solving for age, Initial residual = 0.572077, Final residual = 0.0453602, No Iterations 11

Time = 4

smoothSolver:  Solving for Ux, Initial residual = 0.597997, Final residual = 0.0443667, No Iterations 2
smoothSolver:  Solving for Uy, Initial residual = 0.610572, Final residual = 0.0446007, No Iterations 2
GAMG:  Solving for p, Initial residual = 0.0270454, Final residual = 0.00126691, No Iterations 2
GAMG:  Solving for p, Initial residual = 0.0516337, Final residual = 0.00286546, No Iterations 1
GAMG:  Solving for p, Initial residual = 0.0238136, Final residual = 0.0016144, No Iterations 1
time step continuity errors : sum local = 2.41564, global = 0.0369497, cumulative = 0.0289146
smoothSolver:  Solving for omega, Initial residual = 0.429879, Final residual = 0.0155388, No Iterations 2
smoothSolver:  Solving for k, Initial residual = 0.480366, Final residual = 0.030502, No Iterations 2
ExecutionTime = 0.35 s  ClockTime = 1 s

scalarTransport execute: age
smoothSolver:  Solving for age, Initial residual = 0.575507, Final residual = 0.0555784, No Iterations 8

Time = 5

smoothSolver:  Solving for Ux, Initial residual = 0.647236, Final residual = 0.0526989, No Iterations 2
smoothSolver:  Solving for Uy, Initial residual = 0.650223, Final residual = 0.0486318, No Iterations 2
GAMG:  Solving for p, Initial residual = 0.0278623, Final residual = 0.00105634, No Iterations 2
GAMG:  Solving for p, Initial residual = 0.0972253, Final residual = 0.00441846, No Iterations 1
GAMG:  Solving for p, Initial residual = 0.0334434, Final residual = 0.00242911, No Iterations 1
time step continuity errors : sum local = 3.11956, global = 0.0488088, cumulative = 0.0777233
smoothSolver:  Solving for omega, Initial residual = 0.449735, Final residual = 0.0226808, No Iterations 2
smoothSolver:  Solving for k, Initial residual = 0.491278, Final residual = 0.020664, No Iterations 2
ExecutionTime = 0.4 s  ClockTime = 1 s

scalarTransport execute: age
smoothSolver:  Solving for age, Initial residual = 0.568612, Final residual = 0.0453679, No Iterations 12

Time = 6

smoothSolver:  Solving for Ux, Initial residual = 0.67379, Final residual = 0.0357267, No Iterations 2
smoothSolver:  Solving for Uy, Initial residual = 0.685508, Final residual = 0.0377637, No Iterations 2
GAMG:  Solving for p, Initial residual = 0.0342666, Final residual = 0.0010697, No Iterations 2
GAMG:  Solving for p, Initial residual = 0.179855, Final residual = 0.00788547, No Iterations 1
GAMG:  Solving for p, Initial residual = 0.0313639, Final residual = 0.00267889, No Iterations 1
time step continuity errors : sum local = 2.23792, global = 0.049872, cumulative = 0.127595
smoothSolver:  Solving for omega, Initial residual = 0.318384, Final residual = 0.0114696, No Iterations 2
smoothSolver:  Solving for k, Initial residual = 0.30294, Final residual = 0.0104944, No Iterations 2
ExecutionTime = 0.44 s  ClockTime = 1 s

scalarTransport execute: age
smoothSolver:  Solving for age, Initial residual = 0.627455, Final residual = 0.0517902, No Iterations 9

Time = 7

smoothSolver:  Solving for Ux, Initial residual = 0.63181, Final residual = 0.0243478, No Iterations 2
smoothSolver:  Solving for Uy, Initial residual = 0.628084, Final residual = 0.0249905, No Iterations 2
GAMG:  Solving for p, Initial residual = 0.0441754, Final residual = 0.0012493, No Iterations 2
GAMG:  Solving for p, Initial residual = 0.244444, Final residual = 0.010844, No Iterations 1
GAMG:  Solving for p, Initial residual = 0.0448521, Final residual = 0.00380131, No Iterations 1
time step continuity errors : sum local = 1.95664, global = 0.0400245, cumulative = 0.16762
smoothSolver:  Solving for omega, Initial residual = 0.283563, Final residual = 0.0213803, No Iterations 1
smoothSolver:  Solving for k, Initial residual = 0.181108, Final residual = 0.00517805, No Iterations 2
ExecutionTime = 0.49 s  ClockTime = 1 s

scalarTransport execute: age
smoothSolver:  Solving for age, Initial residual = 0.51292, Final residual = 0.0419142, No Iterations 11

Time = 8

smoothSolver:  Solving for Ux, Initial residual = 0.582682, Final residual = 0.0202247, No Iterations 2
smoothSolver:  Solving for Uy, Initial residual = 0.584621, Final residual = 0.0199574, No Iterations 2
GAMG:  Solving for p, Initial residual = 0.0604311, Final residual = 0.0015407, No Iterations 2
GAMG:  Solving for p, Initial residual = 0.22986, Final residual = 0.0103376, No Iterations 1
GAMG:  Solving for p, Initial residual = 0.0408585, Final residual = 0.00354216, No Iterations 1
time step continuity errors : sum local = 1.24658, global = 0.0297966, cumulative = 0.197416
smoothSolver:  Solving for omega, Initial residual = 0.253901, Final residual = 0.00692901, No Iterations 2
smoothSolver:  Solving for k, Initial residual = 0.194706, Final residual = 0.0103819, No Iterations 2
ExecutionTime = 0.53 s  ClockTime = 1 s

scalarTransport execute: age
smoothSolver:  Solving for age, Initial residual = 0.433561, Final residual = 0.0418215, No Iterations 32

Time = 9

smoothSolver:  Solving for Ux, Initial residual = 0.540246, Final residual = 0.0200963, No Iterations 2
smoothSolver:  Solving for Uy, Initial residual = 0.534487, Final residual = 0.0192485, No Iterations 2
GAMG:  Solving for p, Initial residual = 0.0728195, Final residual = 0.00663324, No Iterations 1
GAMG:  Solving for p, Initial residual = 0.0490613, Final residual = 0.00332336, No Iterations 1
GAMG:  Solving for p, Initial residual = 0.0561918, Final residual = 0.00301001, No Iterations 1
time step continuity errors : sum local = 0.98732, global = 0.0183099, cumulative = 0.215726
smoothSolver:  Solving for omega, Initial residual = 0.264383, Final residual = 0.0149127, No Iterations 2
smoothSolver:  Solving for k, Initial residual = 0.365019, Final residual = 0.0154433, No Iterations 3
ExecutionTime = 0.58 s  ClockTime = 1 s

scalarTransport execute: age
smoothSolver:  Solving for age, Initial residual = 0.48994, Final residual = 0.0454037, No Iterations 7

Time = 10

smoothSolver:  Solving for Ux, Initial residual = 0.533316, Final residual = 0.0311065, No Iterations 2
smoothSolver:  Solving for Uy, Initial residual = 0.541291, Final residual = 0.0312121, No Iterations 2
GAMG:  Solving for p, Initial residual = 0.0794877, Final residual = 0.00598778, No Iterations 1
GAMG:  Solving for p, Initial residual = 0.0331884, Final residual = 0.00254938, No Iterations 1
GAMG:  Solving for p, Initial residual = 0.0157113, Final residual = 0.00126617, No Iterations 1
time step continuity errors : sum local = 0.447278, global = 0.00727076, cumulative = 0.222997
smoothSolver:  Solving for omega, Initial residual = 0.24202, Final residual = 0.0206651, No Iterations 2
smoothSolver:  Solving for k, Initial residual = 0.404129, Final residual = 0.0228433, No Iterations 3
ExecutionTime = 0.64 s  ClockTime = 1 s

scalarTransport execute: age
smoothSolver:  Solving for age, Initial residual = 0.355655, Final residual = 0.0355384, No Iterations 7

Time = 11

smoothSolver:  Solving for Ux, Initial residual = 0.520158, Final residual = 0.0355777, No Iterations 2
smoothSolver:  Solving for Uy, Initial residual = 0.531833, Final residual = 0.0361485, No Iterations 2
GAMG:  Solving for p, Initial residual = 0.0852372, Final residual = 0.00561379, No Iterations 1
GAMG:  Solving for p, Initial residual = 0.0306049, Final residual = 0.00222304, No Iterations 1
GAMG:  Solving for p, Initial residual = 0.0144177, Final residual = 0.00115295, No Iterations 1
time step continuity errors : sum local = 0.426784, global = -0.00110275, cumulative = 0.221894
smoothSolver:  Solving for omega, Initial residual = 0.204523, Final residual = 0.00804784, No Iterations 3
smoothSolver:  Solving for k, Initial residual = 0.352623, Final residual = 0.0231498, No Iterations 3
ExecutionTime = 0.69 s  ClockTime = 1 s

scalarTransport execute: age
smoothSolver:  Solving for age, Initial residual = 0.330489, Final residual = 0.0287991, No Iterations 8

Time = 12

smoothSolver:  Solving for Ux, Initial residual = 0.5009, Final residual = 0.033954, No Iterations 2
smoothSolver:  Solving for Uy, Initial residual = 0.507868, Final residual = 0.0330536, No Iterations 2
GAMG:  Solving for p, Initial residual = 0.0878866, Final residual = 0.00523542, No Iterations 1
GAMG:  Solving for p, Initial residual = 0.0312373, Final residual = 0.00203061, No Iterations 1
GAMG:  Solving for p, Initial residual = 0.0337228, Final residual = 0.0019039, No Iterations 1
time step continuity errors : sum local = 0.692455, global = -0.00905154, cumulative = 0.212843
smoothSolver:  Solving for omega, Initial residual = 0.161846, Final residual = 0.00821653, No Iterations 3
smoothSolver:  Solving for k, Initial residual = 0.370446, Final residual = 0.0291171, No Iterations 3
ExecutionTime = 0.74 s  ClockTime = 1 s

scalarTransport execute: age
smoothSolver:  Solving for age, Initial residual = 0.310177, Final residual = 0.0268939, No Iterations 7

Time = 13

smoothSolver:  Solving for Ux, Initial residual = 0.510664, Final residual = 0.0357835, No Iterations 2
smoothSolver:  Solving for Uy, Initial residual = 0.530269, Final residual = 0.0353472, No Iterations 2
GAMG:  Solving for p, Initial residual = 0.090751, Final residual = 0.00518087, No Iterations 1
GAMG:  Solving for p, Initial residual = 0.056871, Final residual = 0.00273228, No Iterations 1
GAMG:  Solving for p, Initial residual = 0.0407234, Final residual = 0.0025741, No Iterations 1
time step continuity errors : sum local = 0.932696, global = -0.0149236, cumulative = 0.197919
smoothSolver:  Solving for omega, Initial residual = 0.193335, Final residual = 0.0131778, No Iterations 2
smoothSolver:  Solving for k, Initial residual = 0.319374, Final residual = 0.0236999, No Iterations 2
ExecutionTime = 0.79 s  ClockTime = 2 s

scalarTransport execute: age
smoothSolver:  Solving for age, Initial residual = 0.271014, Final residual = 0.0220388, No Iterations 7

Time = 14

smoothSolver:  Solving for Ux, Initial residual = 0.523806, Final residual = 0.0360423, No Iterations 2
smoothSolver:  Solving for Uy, Initial residual = 0.551864, Final residual = 0.0379011, No Iterations 2
GAMG:  Solving for p, Initial residual = 0.0912151, Final residual = 0.00528138, No Iterations 1
GAMG:  Solving for p, Initial residual = 0.0682766, Final residual = 0.00311708, No Iterations 1
GAMG:  Solving for p, Initial residual = 0.0609506, Final residual = 0.00354124, No Iterations 1
time step continuity errors : sum local = 1.13319, global = -0.0180912, cumulative = 0.179828
smoothSolver:  Solving for omega, Initial residual = 0.174653, Final residual = 0.00816685, No Iterations 2
smoothSolver:  Solving for k, Initial residual = 0.198564, Final residual = 0.0130561, No Iterations 2
ExecutionTime = 0.85 s  ClockTime = 2 s

scalarTransport execute: age
smoothSolver:  Solving for age, Initial residual = 0.237777, Final residual = 0.0187162, No Iterations 7

Time = 15

smoothSolver:  Solving for Ux, Initial residual = 0.486761, Final residual = 0.0312778, No Iterations 2
smoothSolver:  Solving for Uy, Initial residual = 0.509923, Final residual = 0.0330848, No Iterations 2
GAMG:  Solving for p, Initial residual = 0.0870575, Final residual = 0.00514108, No Iterations 1
GAMG:  Solving for p, Initial residual = 0.0649223, Final residual = 0.00296464, No Iterations 1
GAMG:  Solving for p, Initial residual = 0.0792507, Final residual = 0.00433011, No Iterations 1
time step continuity errors : sum local = 1.33828, global = -0.0203348, cumulative = 0.159493
smoothSolver:  Solving for omega, Initial residual = 0.132361, Final residual = 0.00522174, No Iterations 2
smoothSolver:  Solving for k, Initial residual = 0.161484, Final residual = 0.00872655, No Iterations 2
ExecutionTime = 0.9 s  ClockTime = 2 s

scalarTransport execute: age
smoothSolver:  Solving for age, Initial residual = 0.237584, Final residual = 0.0197101, No Iterations 7

Time = 16

smoothSolver:  Solving for Ux, Initial residual = 0.452949, Final residual = 0.0267023, No Iterations 2
smoothSolver:  Solving for Uy, Initial residual = 0.482777, Final residual = 0.0277673, No Iterations 2
GAMG:  Solving for p, Initial residual = 0.0812775, Final residual = 0.00503874, No Iterations 1
GAMG:  Solving for p, Initial residual = 0.0602596, Final residual = 0.00272388, No Iterations 1
GAMG:  Solving for p, Initial residual = 0.0945498, Final residual = 0.00485231, No Iterations 1
time step continuity errors : sum local = 1.40478, global = -0.0207976, cumulative = 0.138696
smoothSolver:  Solving for omega, Initial residual = 0.123908, Final residual = 0.00411524, No Iterations 2
smoothSolver:  Solving for k, Initial residual = 0.139627, Final residual = 0.00743692, No Iterations 2
ExecutionTime = 0.95 s  ClockTime = 2 s

scalarTransport execute: age
smoothSolver:  Solving for age, Initial residual = 0.257629, Final residual = 0.023656, No Iterations 7

Time = 17

smoothSolver:  Solving for Ux, Initial residual = 0.431739, Final residual = 0.024127, No Iterations 2
smoothSolver:  Solving for Uy, Initial residual = 0.441113, Final residual = 0.0242826, No Iterations 2
GAMG:  Solving for p, Initial residual = 0.0701333, Final residual = 0.00449205, No Iterations 1
GAMG:  Solving for p, Initial residual = 0.0544919, Final residual = 0.00249432, No Iterations 1
GAMG:  Solving for p, Initial residual = 0.0865659, Final residual = 0.00441072, No Iterations 1
time step continuity errors : sum local = 1.34029, global = -0.0194186, cumulative = 0.119277
smoothSolver:  Solving for omega, Initial residual = 0.112034, Final residual = 0.0038377, No Iterations 2
smoothSolver:  Solving for k, Initial residual = 0.131514, Final residual = 0.00644585, No Iterations 2
ExecutionTime = 1 s  ClockTime = 2 s

scalarTransport execute: age
smoothSolver:  Solving for age, Initial residual = 0.26152, Final residual = 0.0252821, No Iterations 7

Time = 18

smoothSolver:  Solving for Ux, Initial residual = 0.400735, Final residual = 0.0213115, No Iterations 2
smoothSolver:  Solving for Uy, Initial residual = 0.412929, Final residual = 0.0208669, No Iterations 2
GAMG:  Solving for p, Initial residual = 0.057555, Final residual = 0.00383157, No Iterations 1
GAMG:  Solving for p, Initial residual = 0.0414222, Final residual = 0.00193926, No Iterations 1
GAMG:  Solving for p, Initial residual = 0.0772949, Final residual = 0.00384828, No Iterations 1
time step continuity errors : sum local = 1.22713, global = -0.0171831, cumulative = 0.102094
smoothSolver:  Solving for omega, Initial residual = 0.120892, Final residual = 0.00410545, No Iterations 2
smoothSolver:  Solving for k, Initial residual = 0.130487, Final residual = 0.00858111, No Iterations 2
ExecutionTime = 1.05 s  ClockTime = 2 s

scalarTransport execute: age
smoothSolver:  Solving for age, Initial residual = 0.293678, Final residual = 0.0225586, No Iterations 7

Time = 19

smoothSolver:  Solving for Ux, Initial residual = 0.370168, Final residual = 0.0195304, No Iterations 2
smoothSolver:  Solving for Uy, Initial residual = 0.368439, Final residual = 0.0194511, No Iterations 2
GAMG:  Solving for p, Initial residual = 0.0463272, Final residual = 0.0031549, No Iterations 1
GAMG:  Solving for p, Initial residual = 0.0327087, Final residual = 0.00155498, No Iterations 1
GAMG:  Solving for p, Initial residual = 0.0442525, Final residual = 0.00227695, No Iterations 1
time step continuity errors : sum local = 0.780571, global = -0.0136269, cumulative = 0.088467
smoothSolver:  Solving for omega, Initial residual = 0.120136, Final residual = 0.00495002, No Iterations 2
smoothSolver:  Solving for k, Initial residual = 0.132369, Final residual = 0.010329, No Iterations 2
ExecutionTime = 1.09 s  ClockTime = 2 s

scalarTransport execute: age
smoothSolver:  Solving for age, Initial residual = 0.343185, Final residual = 0.029785, No Iterations 18

Time = 20

smoothSolver:  Solving for Ux, Initial residual = 0.319077, Final residual = 0.0194614, No Iterations 2
smoothSolver:  Solving for Uy, Initial residual = 0.327001, Final residual = 0.0204804, No Iterations 2
GAMG:  Solving for p, Initial residual = 0.0369203, Final residual = 0.00250458, No Iterations 1
GAMG:  Solving for p, Initial residual = 0.0212896, Final residual = 0.00106963, No Iterations 1
GAMG:  Solving for p, Initial residual = 0.0319604, Final residual = 0.00161116, No Iterations 1
time step continuity errors : sum local = 0.583202, global = -0.0104413, cumulative = 0.0780258
smoothSolver:  Solving for omega, Initial residual = 0.127066, Final residual = 0.00679044, No Iterations 2
smoothSolver:  Solving for k, Initial residual = 0.161356, Final residual = 0.0161297, No Iterations 2
ExecutionTime = 1.15 s  ClockTime = 2 s

scalarTransport execute: age
smoothSolver:  Solving for age, Initial residual = 0.472946, Final residual = 0.0342421, No Iterations 7

Time = 21

smoothSolver:  Solving for Ux, Initial residual = 0.289884, Final residual = 0.0182361, No Iterations 2
smoothSolver:  Solving for Uy, Initial residual = 0.280264, Final residual = 0.0190962, No Iterations 2
GAMG:  Solving for p, Initial residual = 0.0304116, Final residual = 0.00210847, No Iterations 1
GAMG:  Solving for p, Initial residual = 0.0150771, Final residual = 0.000834583, No Iterations 1
GAMG:  Solving for p, Initial residual = 0.0182998, Final residual = 0.000943104, No Iterations 1
time step continuity errors : sum local = 0.358538, global = -0.00708608, cumulative = 0.0709397
smoothSolver:  Solving for omega, Initial residual = 0.136735, Final residual = 0.00855887, No Iterations 2
smoothSolver:  Solving for k, Initial residual = 0.193251, Final residual = 0.00979364, No Iterations 3
ExecutionTime = 1.19 s  ClockTime = 2 s

scalarTransport execute: age
smoothSolver:  Solving for age, Initial residual = 0.287148, Final residual = 0.021188, No Iterations 7

Time = 22

smoothSolver:  Solving for Ux, Initial residual = 0.264335, Final residual = 0.0187819, No Iterations 2
smoothSolver:  Solving for Uy, Initial residual = 0.256979, Final residual = 0.0188617, No Iterations 2
GAMG:  Solving for p, Initial residual = 0.0255821, Final residual = 0.00176732, No Iterations 1
GAMG:  Solving for p, Initial residual = 0.0094087, Final residual = 0.000627662, No Iterations 1
GAMG:  Solving for p, Initial residual = 0.00936446, Final residual = 0.000506183, No Iterations 1
time step continuity errors : sum local = 0.202048, global = -0.00452632, cumulative = 0.0664134
smoothSolver:  Solving for omega, Initial residual = 0.130398, Final residual = 0.00977244, No Iterations 2
smoothSolver:  Solving for k, Initial residual = 0.194926, Final residual = 0.0107747, No Iterations 3
ExecutionTime = 1.23 s  ClockTime = 2 s

scalarTransport execute: age
smoothSolver:  Solving for age, Initial residual = 0.30429, Final residual = 0.0216922, No Iterations 7

Time = 23

smoothSolver:  Solving for Ux, Initial residual = 0.247532, Final residual = 0.018389, No Iterations 2
smoothSolver:  Solving for Uy, Initial residual = 0.229778, Final residual = 0.0192178, No Iterations 2
GAMG:  Solving for p, Initial residual = 0.0227665, Final residual = 0.00154729, No Iterations 1
GAMG:  Solving for p, Initial residual = 0.00848242, Final residual = 0.0005994, No Iterations 1
GAMG:  Solving for p, Initial residual = 0.00427385, Final residual = 0.000318321, No Iterations 1
time step continuity errors : sum local = 0.133279, global = -0.00207184, cumulative = 0.0643415
smoothSolver:  Solving for omega, Initial residual = 0.124819, Final residual = 0.0104843, No Iterations 2
smoothSolver:  Solving for k, Initial residual = 0.211183, Final residual = 0.0125193, No Iterations 3
ExecutionTime = 1.28 s  ClockTime = 2 s

scalarTransport execute: age
smoothSolver:  Solving for age, Initial residual = 0.292228, Final residual = 0.028994, No Iterations 6

Time = 24

smoothSolver:  Solving for Ux, Initial residual = 0.240554, Final residual = 0.0182384, No Iterations 2
smoothSolver:  Solving for Uy, Initial residual = 0.222752, Final residual = 0.0185039, No Iterations 2
GAMG:  Solving for p, Initial residual = 0.0198632, Final residual = 0.00134713, No Iterations 1
GAMG:  Solving for p, Initial residual = 0.00689447, Final residual = 0.000500401, No Iterations 1
GAMG:  Solving for p, Initial residual = 0.00302447, Final residual = 0.00023586, No Iterations 1
time step continuity errors : sum local = 0.102046, global = 0.000313328, cumulative = 0.0646549
smoothSolver:  Solving for omega, Initial residual = 0.109095, Final residual = 0.00797162, No Iterations 2
smoothSolver:  Solving for k, Initial residual = 0.165887, Final residual = 0.00852669, No Iterations 3
ExecutionTime = 1.33 s  ClockTime = 2 s

scalarTransport execute: age
smoothSolver:  Solving for age, Initial residual = 0.289773, Final residual = 0.0220423, No Iterations 7

Time = 25

smoothSolver:  Solving for Ux, Initial residual = 0.228046, Final residual = 0.0169657, No Iterations 2
smoothSolver:  Solving for Uy, Initial residual = 0.202439, Final residual = 0.0176646, No Iterations 2
GAMG:  Solving for p, Initial residual = 0.0183804, Final residual = 0.00126152, No Iterations 1
GAMG:  Solving for p, Initial residual = 0.00857249, Final residual = 0.00058765, No Iterations 1
GAMG:  Solving for p, Initial residual = 0.00642629, Final residual = 0.000406443, No Iterations 1
time step continuity errors : sum local = 0.176333, global = 0.00259718, cumulative = 0.067252
smoothSolver:  Solving for omega, Initial residual = 0.108912, Final residual = 0.0078465, No Iterations 2
smoothSolver:  Solving for k, Initial residual = 0.181218, Final residual = 0.0103741, No Iterations 3
ExecutionTime = 1.37 s  ClockTime = 2 s

scalarTransport execute: age
smoothSolver:  Solving for age, Initial residual = 0.33589, Final residual = 0.0314282, No Iterations 6

Time = 26

smoothSolver:  Solving for Ux, Initial residual = 0.2406, Final residual = 0.0178259, No Iterations 2
smoothSolver:  Solving for Uy, Initial residual = 0.213019, Final residual = 0.0171873, No Iterations 2
GAMG:  Solving for p, Initial residual = 0.0170751, Final residual = 0.00113564, No Iterations 1
GAMG:  Solving for p, Initial residual = 0.0112566, Final residual = 0.000677161, No Iterations 1
GAMG:  Solving for p, Initial residual = 0.0120068, Final residual = 0.000680091, No Iterations 1
time step continuity errors : sum local = 0.295503, global = 0.00401991, cumulative = 0.071272
smoothSolver:  Solving for omega, Initial residual = 0.107246, Final residual = 0.00507185, No Iterations 3
smoothSolver:  Solving for k, Initial residual = 0.208446, Final residual = 0.0147429, No Iterations 3
ExecutionTime = 1.42 s  ClockTime = 2 s

scalarTransport execute: age
smoothSolver:  Solving for age, Initial residual = 0.315143, Final residual = 0.0280933, No Iterations 8

Time = 27

smoothSolver:  Solving for Ux, Initial residual = 0.277678, Final residual = 0.019077, No Iterations 2
smoothSolver:  Solving for Uy, Initial residual = 0.234666, Final residual = 0.017149, No Iterations 2
GAMG:  Solving for p, Initial residual = 0.0163846, Final residual = 0.00110828, No Iterations 1
GAMG:  Solving for p, Initial residual = 0.0126467, Final residual = 0.000712758, No Iterations 1
GAMG:  Solving for p, Initial residual = 0.0191701, Final residual = 0.00101478, No Iterations 1
time step continuity errors : sum local = 0.442881, global = 0.00528048, cumulative = 0.0765524
smoothSolver:  Solving for omega, Initial residual = 0.0864537, Final residual = 0.00423419, No Iterations 3
smoothSolver:  Solving for k, Initial residual = 0.150341, Final residual = 0.0104219, No Iterations 3
ExecutionTime = 1.47 s  ClockTime = 2 s

scalarTransport execute: age
smoothSolver:  Solving for age, Initial residual = 0.316997, Final residual = 0.0315566, No Iterations 8

Time = 28

smoothSolver:  Solving for Ux, Initial residual = 0.322759, Final residual = 0.0208432, No Iterations 2
smoothSolver:  Solving for Uy, Initial residual = 0.262269, Final residual = 0.0171964, No Iterations 2
GAMG:  Solving for p, Initial residual = 0.0161454, Final residual = 0.00113716, No Iterations 1
GAMG:  Solving for p, Initial residual = 0.0177278, Final residual = 0.000915961, No Iterations 1
GAMG:  Solving for p, Initial residual = 0.0203994, Final residual = 0.00112149, No Iterations 1
time step continuity errors : sum local = 0.469541, global = 0.00539081, cumulative = 0.0819432
smoothSolver:  Solving for omega, Initial residual = 0.108016, Final residual = 0.00978203, No Iterations 2
smoothSolver:  Solving for k, Initial residual = 0.160466, Final residual = 0.0118238, No Iterations 3
ExecutionTime = 1.52 s  ClockTime = 2 s

scalarTransport execute: age
smoothSolver:  Solving for age, Initial residual = 0.277273, Final residual = 0.0261756, No Iterations 9

Time = 29

smoothSolver:  Solving for Ux, Initial residual = 0.353869, Final residual = 0.0224365, No Iterations 2
smoothSolver:  Solving for Uy, Initial residual = 0.2813, Final residual = 0.017717, No Iterations 2
GAMG:  Solving for p, Initial residual = 0.016155, Final residual = 0.00113491, No Iterations 1
GAMG:  Solving for p, Initial residual = 0.0170707, Final residual = 0.000882889, No Iterations 1
GAMG:  Solving for p, Initial residual = 0.0228818, Final residual = 0.00124142, No Iterations 1
time step continuity errors : sum local = 0.508094, global = 0.00506139, cumulative = 0.0870046
smoothSolver:  Solving for omega, Initial residual = 0.0745375, Final residual = 0.00404838, No Iterations 3
smoothSolver:  Solving for k, Initial residual = 0.0981827, Final residual = 0.00759575, No Iterations 3
ExecutionTime = 1.57 s  ClockTime = 2 s

scalarTransport execute: age
smoothSolver:  Solving for age, Initial residual = 0.252021, Final residual = 0.0248018, No Iterations 9

Time = 30

smoothSolver:  Solving for Ux, Initial residual = 0.37037, Final residual = 0.0226702, No Iterations 2
smoothSolver:  Solving for Uy, Initial residual = 0.290397, Final residual = 0.0176147, No Iterations 2
GAMG:  Solving for p, Initial residual = 0.0159026, Final residual = 0.0011321, No Iterations 1
GAMG:  Solving for p, Initial residual = 0.0147495, Final residual = 0.000797657, No Iterations 1
GAMG:  Solving for p, Initial residual = 0.0226241, Final residual = 0.00121076, No Iterations 1
time step continuity errors : sum local = 0.470841, global = 0.00432219, cumulative = 0.0913268
smoothSolver:  Solving for omega, Initial residual = 0.0524157, Final residual = 0.00287607, No Iterations 3
smoothSolver:  Solving for k, Initial residual = 0.0679816, Final residual = 0.0051112, No Iterations 3
ExecutionTime = 1.62 s  ClockTime = 3 s

scalarTransport execute: age
smoothSolver:  Solving for age, Initial residual = 0.237783, Final residual = 0.0236134, No Iterations 9

Time = 31

smoothSolver:  Solving for Ux, Initial residual = 0.352025, Final residual = 0.022048, No Iterations 2
smoothSolver:  Solving for Uy, Initial residual = 0.27331, Final residual = 0.0172452, No Iterations 2
GAMG:  Solving for p, Initial residual = 0.0159625, Final residual = 0.0011723, No Iterations 1
GAMG:  Solving for p, Initial residual = 0.0120434, Final residual = 0.000700026, No Iterations 1
GAMG:  Solving for p, Initial residual = 0.0180931, Final residual = 0.000969224, No Iterations 1
time step continuity errors : sum local = 0.360879, global = 0.00340447, cumulative = 0.0947313
smoothSolver:  Solving for omega, Initial residual = 0.0612448, Final residual = 0.00477678, No Iterations 2
smoothSolver:  Solving for k, Initial residual = 0.0648644, Final residual = 0.00326935, No Iterations 3
ExecutionTime = 1.67 s  ClockTime = 3 s

scalarTransport execute: age
smoothSolver:  Solving for age, Initial residual = 0.220246, Final residual = 0.0216822, No Iterations 9

Time = 32

smoothSolver:  Solving for Ux, Initial residual = 0.316709, Final residual = 0.0208737, No Iterations 2
smoothSolver:  Solving for Uy, Initial residual = 0.246143, Final residual = 0.0161817, No Iterations 2
GAMG:  Solving for p, Initial residual = 0.0156345, Final residual = 0.0011863, No Iterations 1
GAMG:  Solving for p, Initial residual = 0.00719126, Final residual = 0.000511459, No Iterations 1
GAMG:  Solving for p, Initial residual = 0.00519765, Final residual = 0.000338621, No Iterations 1
time step continuity errors : sum local = 0.120883, global = 0.00224935, cumulative = 0.0969806
smoothSolver:  Solving for omega, Initial residual = 0.109828, Final residual = 0.00937809, No Iterations 2
smoothSolver:  Solving for k, Initial residual = 0.0901319, Final residual = 0.00415124, No Iterations 3
ExecutionTime = 1.72 s  ClockTime = 3 s

scalarTransport execute: age
smoothSolver:  Solving for age, Initial residual = 0.195177, Final residual = 0.0186412, No Iterations 9

Time = 33

smoothSolver:  Solving for Ux, Initial residual = 0.242322, Final residual = 0.0193575, No Iterations 2
smoothSolver:  Solving for Uy, Initial residual = 0.198995, Final residual = 0.0151413, No Iterations 2
GAMG:  Solving for p, Initial residual = 0.0161514, Final residual = 0.00120124, No Iterations 1
GAMG:  Solving for p, Initial residual = 0.00666731, Final residual = 0.000488972, No Iterations 1
GAMG:  Solving for p, Initial residual = 0.00473631, Final residual = 0.000309758, No Iterations 1
time step continuity errors : sum local = 0.103, global = 0.00181802, cumulative = 0.0987987
smoothSolver:  Solving for omega, Initial residual = 0.107198, Final residual = 0.00787495, No Iterations 2
smoothSolver:  Solving for k, Initial residual = 0.104271, Final residual = 0.00459638, No Iterations 3
ExecutionTime = 1.77 s  ClockTime = 3 s

scalarTransport execute: age
smoothSolver:  Solving for age, Initial residual = 0.161762, Final residual = 0.0154003, No Iterations 9

Time = 34

smoothSolver:  Solving for Ux, Initial residual = 0.212538, Final residual = 0.0171429, No Iterations 2
smoothSolver:  Solving for Uy, Initial residual = 0.169265, Final residual = 0.0144206, No Iterations 2
GAMG:  Solving for p, Initial residual = 0.0155788, Final residual = 0.00110025, No Iterations 1
GAMG:  Solving for p, Initial residual = 0.00644114, Final residual = 0.000455318, No Iterations 1
GAMG:  Solving for p, Initial residual = 0.0053836, Final residual = 0.000332359, No Iterations 1
time step continuity errors : sum local = 0.106219, global = 0.00132544, cumulative = 0.100124
smoothSolver:  Solving for omega, Initial residual = 0.102985, Final residual = 0.00529312, No Iterations 2
smoothSolver:  Solving for k, Initial residual = 0.0856429, Final residual = 0.00673654, No Iterations 2
ExecutionTime = 1.81 s  ClockTime = 3 s

scalarTransport execute: age
smoothSolver:  Solving for age, Initial residual = 0.132372, Final residual = 0.0121611, No Iterations 9

Time = 35

smoothSolver:  Solving for Ux, Initial residual = 0.189794, Final residual = 0.0159582, No Iterations 2
smoothSolver:  Solving for Uy, Initial residual = 0.155486, Final residual = 0.0134217, No Iterations 2
GAMG:  Solving for p, Initial residual = 0.0152394, Final residual = 0.00105619, No Iterations 1
GAMG:  Solving for p, Initial residual = 0.00642051, Final residual = 0.000466349, No Iterations 1
GAMG:  Solving for p, Initial residual = 0.00507993, Final residual = 0.00033182, No Iterations 1
time step continuity errors : sum local = 0.101896, global = 0.001179, cumulative = 0.101303
smoothSolver:  Solving for omega, Initial residual = 0.0926292, Final residual = 0.00355256, No Iterations 2
smoothSolver:  Solving for k, Initial residual = 0.0775499, Final residual = 0.00659333, No Iterations 2
ExecutionTime = 1.86 s  ClockTime = 3 s

scalarTransport execute: age
smoothSolver:  Solving for age, Initial residual = 0.111013, Final residual = 0.0103133, No Iterations 9

Time = 36

smoothSolver:  Solving for Ux, Initial residual = 0.180968, Final residual = 0.0162689, No Iterations 2
smoothSolver:  Solving for Uy, Initial residual = 0.149565, Final residual = 0.0136022, No Iterations 2
GAMG:  Solving for p, Initial residual = 0.0146368, Final residual = 0.00109604, No Iterations 1
GAMG:  Solving for p, Initial residual = 0.00613155, Final residual = 0.000469405, No Iterations 1
GAMG:  Solving for p, Initial residual = 0.00403793, Final residual = 0.000272342, No Iterations 1
time step continuity errors : sum local = 0.0801622, global = 0.000894896, cumulative = 0.102198
smoothSolver:  Solving for omega, Initial residual = 0.0848919, Final residual = 0.00303201, No Iterations 2
smoothSolver:  Solving for k, Initial residual = 0.0738314, Final residual = 0.00470582, No Iterations 2
ExecutionTime = 1.91 s  ClockTime = 3 s

scalarTransport execute: age
smoothSolver:  Solving for age, Initial residual = 0.0998159, Final residual = 0.00900384, No Iterations 9

Time = 37

smoothSolver:  Solving for Ux, Initial residual = 0.165618, Final residual = 0.0152155, No Iterations 2
smoothSolver:  Solving for Uy, Initial residual = 0.138224, Final residual = 0.0128039, No Iterations 2
GAMG:  Solving for p, Initial residual = 0.0136841, Final residual = 0.000982139, No Iterations 1
GAMG:  Solving for p, Initial residual = 0.00583887, Final residual = 0.000438942, No Iterations 1
GAMG:  Solving for p, Initial residual = 0.00480797, Final residual = 0.000305722, No Iterations 1
time step continuity errors : sum local = 0.0871184, global = 0.00061809, cumulative = 0.102816
smoothSolver:  Solving for omega, Initial residual = 0.0799998, Final residual = 0.0033235, No Iterations 2
smoothSolver:  Solving for k, Initial residual = 0.070657, Final residual = 0.00549727, No Iterations 2
ExecutionTime = 1.95 s  ClockTime = 3 s

scalarTransport execute: age
smoothSolver:  Solving for age, Initial residual = 0.0906005, Final residual = 0.00796461, No Iterations 9

Time = 38

smoothSolver:  Solving for Ux, Initial residual = 0.154205, Final residual = 0.014952, No Iterations 2
smoothSolver:  Solving for Uy, Initial residual = 0.131189, Final residual = 0.012073, No Iterations 2
GAMG:  Solving for p, Initial residual = 0.0134268, Final residual = 0.000976325, No Iterations 1
GAMG:  Solving for p, Initial residual = 0.00599744, Final residual = 0.000419785, No Iterations 1
GAMG:  Solving for p, Initial residual = 0.00470311, Final residual = 0.000299506, No Iterations 1
time step continuity errors : sum local = 0.0832858, global = 0.000568854, cumulative = 0.103385
smoothSolver:  Solving for omega, Initial residual = 0.0914809, Final residual = 0.00311191, No Iterations 2
smoothSolver:  Solving for k, Initial residual = 0.0716146, Final residual = 0.00553237, No Iterations 2
ExecutionTime = 2 s  ClockTime = 3 s

scalarTransport execute: age
smoothSolver:  Solving for age, Initial residual = 0.0859576, Final residual = 0.007176, No Iterations 9

Time = 39

smoothSolver:  Solving for Ux, Initial residual = 0.150704, Final residual = 0.0148102, No Iterations 2
smoothSolver:  Solving for Uy, Initial residual = 0.124826, Final residual = 0.0116225, No Iterations 2
GAMG:  Solving for p, Initial residual = 0.0124592, Final residual = 0.000940801, No Iterations 1
GAMG:  Solving for p, Initial residual = 0.00592467, Final residual = 0.000412142, No Iterations 1
GAMG:  Solving for p, Initial residual = 0.0046862, Final residual = 0.000298644, No Iterations 1
time step continuity errors : sum local = 0.0815614, global = 0.000561016, cumulative = 0.103946
smoothSolver:  Solving for omega, Initial residual = 0.0854754, Final residual = 0.00281155, No Iterations 2
smoothSolver:  Solving for k, Initial residual = 0.071613, Final residual = 0.00544978, No Iterations 2
ExecutionTime = 2.06 s  ClockTime = 3 s

scalarTransport execute: age
smoothSolver:  Solving for age, Initial residual = 0.0839478, Final residual = 0.00686421, No Iterations 9

Time = 40

smoothSolver:  Solving for Ux, Initial residual = 0.145979, Final residual = 0.0145096, No Iterations 2
smoothSolver:  Solving for Uy, Initial residual = 0.121869, Final residual = 0.011452, No Iterations 2
GAMG:  Solving for p, Initial residual = 0.0120338, Final residual = 0.000893556, No Iterations 1
GAMG:  Solving for p, Initial residual = 0.00575643, Final residual = 0.000414088, No Iterations 1
GAMG:  Solving for p, Initial residual = 0.00439369, Final residual = 0.000281814, No Iterations 1
time step continuity errors : sum local = 0.0749995, global = 0.000558957, cumulative = 0.104505
smoothSolver:  Solving for omega, Initial residual = 0.0713849, Final residual = 0.00309116, No Iterations 2
smoothSolver:  Solving for k, Initial residual = 0.0658358, Final residual = 0.00584148, No Iterations 2
ExecutionTime = 2.11 s  ClockTime = 3 s

scalarTransport execute: age
smoothSolver:  Solving for age, Initial residual = 0.0843146, Final residual = 0.00693161, No Iterations 9

Time = 41

smoothSolver:  Solving for Ux, Initial residual = 0.13449, Final residual = 0.00872153, No Iterations 3
smoothSolver:  Solving for Uy, Initial residual = 0.11193, Final residual = 0.00660776, No Iterations 3
GAMG:  Solving for p, Initial residual = 0.0114871, Final residual = 0.000909108, No Iterations 1
GAMG:  Solving for p, Initial residual = 0.00709723, Final residual = 0.000455175, No Iterations 1
GAMG:  Solving for p, Initial residual = 0.00541744, Final residual = 0.000344461, No Iterations 1
time step continuity errors : sum local = 0.0910318, global = 0.000679242, cumulative = 0.105184
smoothSolver:  Solving for omega, Initial residual = 0.0671683, Final residual = 0.00339008, No Iterations 2
smoothSolver:  Solving for k, Initial residual = 0.0695649, Final residual = 0.00589627, No Iterations 2
ExecutionTime = 2.16 s  ClockTime = 3 s

scalarTransport execute: age
smoothSolver:  Solving for age, Initial residual = 0.0876733, Final residual = 0.00870591, No Iterations 8

Time = 42

smoothSolver:  Solving for Ux, Initial residual = 0.141659, Final residual = 0.00850769, No Iterations 3
smoothSolver:  Solving for Uy, Initial residual = 0.119168, Final residual = 0.0111661, No Iterations 2
GAMG:  Solving for p, Initial residual = 0.011026, Final residual = 0.000870341, No Iterations 1
GAMG:  Solving for p, Initial residual = 0.00699184, Final residual = 0.000448852, No Iterations 1
GAMG:  Solving for p, Initial residual = 0.00835375, Final residual = 0.000491171, No Iterations 1
time step continuity errors : sum local = 0.125814, global = 0.000895806, cumulative = 0.10608
smoothSolver:  Solving for omega, Initial residual = 0.064121, Final residual = 0.00341453, No Iterations 2
smoothSolver:  Solving for k, Initial residual = 0.0644873, Final residual = 0.00622064, No Iterations 2
ExecutionTime = 2.2 s  ClockTime = 3 s

scalarTransport execute: age
smoothSolver:  Solving for age, Initial residual = 0.0899827, Final residual = 0.00721223, No Iterations 9

Time = 43

smoothSolver:  Solving for Ux, Initial residual = 0.144725, Final residual = 0.014328, No Iterations 2
smoothSolver:  Solving for Uy, Initial residual = 0.123786, Final residual = 0.0118781, No Iterations 2
GAMG:  Solving for p, Initial residual = 0.0106077, Final residual = 0.000857098, No Iterations 1
GAMG:  Solving for p, Initial residual = 0.00705253, Final residual = 0.000454356, No Iterations 1
GAMG:  Solving for p, Initial residual = 0.0100885, Final residual = 0.000552743, No Iterations 1
time step continuity errors : sum local = 0.141576, global = 0.000919836, cumulative = 0.107
smoothSolver:  Solving for omega, Initial residual = 0.0560519, Final residual = 0.00346735, No Iterations 2
smoothSolver:  Solving for k, Initial residual = 0.0576753, Final residual = 0.0053477, No Iterations 2
ExecutionTime = 2.25 s  ClockTime = 3 s

scalarTransport execute: age
smoothSolver:  Solving for age, Initial residual = 0.0936199, Final residual = 0.00742352, No Iterations 9

Time = 44

smoothSolver:  Solving for Ux, Initial residual = 0.143877, Final residual = 0.00896232, No Iterations 3
smoothSolver:  Solving for Uy, Initial residual = 0.126344, Final residual = 0.0117059, No Iterations 2
GAMG:  Solving for p, Initial residual = 0.0100638, Final residual = 0.000858581, No Iterations 1
GAMG:  Solving for p, Initial residual = 0.00734884, Final residual = 0.000457904, No Iterations 1
GAMG:  Solving for p, Initial residual = 0.00447096, Final residual = 0.000313742, No Iterations 1
time step continuity errors : sum local = 0.0798803, global = 0.000813987, cumulative = 0.107814
smoothSolver:  Solving for omega, Initial residual = 0.0638624, Final residual = 0.00320213, No Iterations 2
smoothSolver:  Solving for k, Initial residual = 0.061483, Final residual = 0.00535928, No Iterations 2
ExecutionTime = 2.3 s  ClockTime = 3 s

scalarTransport execute: age
smoothSolver:  Solving for age, Initial residual = 0.097534, Final residual = 0.0091674, No Iterations 8

Time = 45

smoothSolver:  Solving for Ux, Initial residual = 0.132888, Final residual = 0.00841396, No Iterations 3
smoothSolver:  Solving for Uy, Initial residual = 0.116166, Final residual = 0.00698671, No Iterations 3
GAMG:  Solving for p, Initial residual = 0.0103746, Final residual = 0.000896407, No Iterations 1
GAMG:  Solving for p, Initial residual = 0.00789069, Final residual = 0.000496974, No Iterations 1
GAMG:  Solving for p, Initial residual = 0.00781896, Final residual = 0.000495592, No Iterations 1
time step continuity errors : sum local = 0.124652, global = 0.000690886, cumulative = 0.108505
smoothSolver:  Solving for omega, Initial residual = 0.0843305, Final residual = 0.0034499, No Iterations 2
smoothSolver:  Solving for k, Initial residual = 0.0682553, Final residual = 0.0054326, No Iterations 2
ExecutionTime = 2.35 s  ClockTime = 3 s

scalarTransport execute: age
smoothSolver:  Solving for age, Initial residual = 0.0981997, Final residual = 0.00926047, No Iterations 8

Time = 46

smoothSolver:  Solving for Ux, Initial residual = 0.138661, Final residual = 0.00888649, No Iterations 3
smoothSolver:  Solving for Uy, Initial residual = 0.125676, Final residual = 0.0122632, No Iterations 2
GAMG:  Solving for p, Initial residual = 0.0101443, Final residual = 0.000892174, No Iterations 1
GAMG:  Solving for p, Initial residual = 0.00794752, Final residual = 0.000504103, No Iterations 1
GAMG:  Solving for p, Initial residual = 0.00450144, Final residual = 0.000326154, No Iterations 1
time step continuity errors : sum local = 0.0825805, global = 0.000440565, cumulative = 0.108945
smoothSolver:  Solving for omega, Initial residual = 0.0918377, Final residual = 0.00413418, No Iterations 2
smoothSolver:  Solving for k, Initial residual = 0.0724219, Final residual = 0.005925, No Iterations 2
ExecutionTime = 2.4 s  ClockTime = 3 s

scalarTransport execute: age
smoothSolver:  Solving for age, Initial residual = 0.100266, Final residual = 0.00855252, No Iterations 8

Time = 47

smoothSolver:  Solving for Ux, Initial residual = 0.128333, Final residual = 0.00813757, No Iterations 3
smoothSolver:  Solving for Uy, Initial residual = 0.116444, Final residual = 0.00724528, No Iterations 3
GAMG:  Solving for p, Initial residual = 0.00988711, Final residual = 0.000875281, No Iterations 1
GAMG:  Solving for p, Initial residual = 0.0078348, Final residual = 0.000490833, No Iterations 1
GAMG:  Solving for p, Initial residual = 0.00458597, Final residual = 0.000320755, No Iterations 1
time step continuity errors : sum local = 0.0808473, global = 9.85024e-05, cumulative = 0.109044
smoothSolver:  Solving for omega, Initial residual = 0.0912782, Final residual = 0.00361019, No Iterations 2
smoothSolver:  Solving for k, Initial residual = 0.0734541, Final residual = 0.00555643, No Iterations 2
ExecutionTime = 2.45 s  ClockTime = 4 s

scalarTransport execute: age
smoothSolver:  Solving for age, Initial residual = 0.10064, Final residual = 0.00805802, No Iterations 8

Time = 48

smoothSolver:  Solving for Ux, Initial residual = 0.124739, Final residual = 0.00816271, No Iterations 3
smoothSolver:  Solving for Uy, Initial residual = 0.116816, Final residual = 0.00702526, No Iterations 3
GAMG:  Solving for p, Initial residual = 0.00979744, Final residual = 0.000929872, No Iterations 1
GAMG:  Solving for p, Initial residual = 0.00742524, Final residual = 0.000471438, No Iterations 1
GAMG:  Solving for p, Initial residual = 0.00432231, Final residual = 0.00030288, No Iterations 1
time step continuity errors : sum local = 0.0766833, global = -0.000517814, cumulative = 0.108526
smoothSolver:  Solving for omega, Initial residual = 0.0955139, Final residual = 0.00354311, No Iterations 2
smoothSolver:  Solving for k, Initial residual = 0.0726809, Final residual = 0.00528818, No Iterations 2
ExecutionTime = 2.5 s  ClockTime = 4 s

scalarTransport execute: age
smoothSolver:  Solving for age, Initial residual = 0.0989572, Final residual = 0.00786613, No Iterations 8

Time = 49

smoothSolver:  Solving for Ux, Initial residual = 0.117191, Final residual = 0.00788994, No Iterations 3
smoothSolver:  Solving for Uy, Initial residual = 0.110788, Final residual = 0.00705205, No Iterations 3
GAMG:  Solving for p, Initial residual = 0.00913825, Final residual = 0.000857832, No Iterations 1
GAMG:  Solving for p, Initial residual = 0.00791275, Final residual = 0.000493144, No Iterations 1
GAMG:  Solving for p, Initial residual = 0.00523816, Final residual = 0.0003386, No Iterations 1
time step continuity errors : sum local = 0.0860092, global = -0.000876897, cumulative = 0.107649
smoothSolver:  Solving for omega, Initial residual = 0.0880955, Final residual = 0.00371965, No Iterations 2
smoothSolver:  Solving for k, Initial residual = 0.0743427, Final residual = 0.00634509, No Iterations 2
ExecutionTime = 2.55 s  ClockTime = 4 s

scalarTransport execute: age
smoothSolver:  Solving for age, Initial residual = 0.095589, Final residual = 0.00744263, No Iterations 8

Time = 50

smoothSolver:  Solving for Ux, Initial residual = 0.112379, Final residual = 0.00733739, No Iterations 3
smoothSolver:  Solving for Uy, Initial residual = 0.109091, Final residual = 0.0108109, No Iterations 2
GAMG:  Solving for p, Initial residual = 0.00890078, Final residual = 0.000783142, No Iterations 1
GAMG:  Solving for p, Initial residual = 0.0069901, Final residual = 0.00042754, No Iterations 1
GAMG:  Solving for p, Initial residual = 0.00534484, Final residual = 0.000327179, No Iterations 1
time step continuity errors : sum local = 0.0822408, global = -0.00112662, cumulative = 0.106522
smoothSolver:  Solving for omega, Initial residual = 0.0914389, Final residual = 0.00473194, No Iterations 2
smoothSolver:  Solving for k, Initial residual = 0.0797723, Final residual = 0.00699122, No Iterations 2
ExecutionTime = 2.6 s  ClockTime = 4 s

scalarTransport execute: age
smoothSolver:  Solving for age, Initial residual = 0.0934411, Final residual = 0.00885521, No Iterations 7

Time = 51

smoothSolver:  Solving for Ux, Initial residual = 0.108432, Final residual = 0.00704959, No Iterations 3
smoothSolver:  Solving for Uy, Initial residual = 0.104501, Final residual = 0.00662078, No Iterations 3
GAMG:  Solving for p, Initial residual = 0.00845498, Final residual = 0.000777459, No Iterations 1
GAMG:  Solving for p, Initial residual = 0.00643687, Final residual = 0.000401452, No Iterations 1
GAMG:  Solving for p, Initial residual = 0.0104296, Final residual = 0.00050027, No Iterations 1
time step continuity errors : sum local = 0.125707, global = -0.00140386, cumulative = 0.105119
smoothSolver:  Solving for omega, Initial residual = 0.0819639, Final residual = 0.00310461, No Iterations 2
smoothSolver:  Solving for k, Initial residual = 0.0672066, Final residual = 0.00499009, No Iterations 2
ExecutionTime = 2.66 s  ClockTime = 4 s

scalarTransport execute: age
smoothSolver:  Solving for age, Initial residual = 0.0885044, Final residual = 0.00832486, No Iterations 7

Time = 52

smoothSolver:  Solving for Ux, Initial residual = 0.106167, Final residual = 0.0103009, No Iterations 2
smoothSolver:  Solving for Uy, Initial residual = 0.106924, Final residual = 0.0104202, No Iterations 2
GAMG:  Solving for p, Initial residual = 0.00839551, Final residual = 0.000721316, No Iterations 1
GAMG:  Solving for p, Initial residual = 0.00609087, Final residual = 0.000372209, No Iterations 1
GAMG:  Solving for p, Initial residual = 0.0124008, Final residual = 0.000583194, No Iterations 1
time step continuity errors : sum local = 0.148926, global = -0.001552, cumulative = 0.103567
smoothSolver:  Solving for omega, Initial residual = 0.0810819, Final residual = 0.00312071, No Iterations 2
smoothSolver:  Solving for k, Initial residual = 0.0697031, Final residual = 0.0052197, No Iterations 2
ExecutionTime = 2.72 s  ClockTime = 4 s

scalarTransport execute: age
smoothSolver:  Solving for age, Initial residual = 0.0895741, Final residual = 0.00849242, No Iterations 7

Time = 53

smoothSolver:  Solving for Ux, Initial residual = 0.107968, Final residual = 0.010243, No Iterations 2
smoothSolver:  Solving for Uy, Initial residual = 0.109109, Final residual = 0.0102424, No Iterations 2
GAMG:  Solving for p, Initial residual = 0.00795544, Final residual = 0.000699059, No Iterations 1
GAMG:  Solving for p, Initial residual = 0.00649354, Final residual = 0.000367952, No Iterations 1
GAMG:  Solving for p, Initial residual = 0.00581345, Final residual = 0.000320068, No Iterations 1
time step continuity errors : sum local = 0.0817715, global = -0.00132113, cumulative = 0.102245
smoothSolver:  Solving for omega, Initial residual = 0.0908118, Final residual = 0.00370676, No Iterations 2
smoothSolver:  Solving for k, Initial residual = 0.0760497, Final residual = 0.00619514, No Iterations 2
ExecutionTime = 2.77 s  ClockTime = 4 s

scalarTransport execute: age
smoothSolver:  Solving for age, Initial residual = 0.0900447, Final residual = 0.00716957, No Iterations 8

Time = 54

smoothSolver:  Solving for Ux, Initial residual = 0.0918302, Final residual = 0.00590311, No Iterations 3
smoothSolver:  Solving for Uy, Initial residual = 0.0965508, Final residual = 0.00593318, No Iterations 3
GAMG:  Solving for p, Initial residual = 0.00781277, Final residual = 0.000719077, No Iterations 1
GAMG:  Solving for p, Initial residual = 0.00711207, Final residual = 0.000417466, No Iterations 1
GAMG:  Solving for p, Initial residual = 0.00543014, Final residual = 0.000324769, No Iterations 1
time step continuity errors : sum local = 0.0840339, global = -0.00151074, cumulative = 0.100735
smoothSolver:  Solving for omega, Initial residual = 0.0942992, Final residual = 0.00859578, No Iterations 1
smoothSolver:  Solving for k, Initial residual = 0.0694593, Final residual = 0.00471265, No Iterations 2
ExecutionTime = 2.82 s  ClockTime = 4 s

scalarTransport execute: age
smoothSolver:  Solving for age, Initial residual = 0.0943187, Final residual = 0.00796515, No Iterations 8

Time = 55

smoothSolver:  Solving for Ux, Initial residual = 0.0947715, Final residual = 0.00929903, No Iterations 2
smoothSolver:  Solving for Uy, Initial residual = 0.0975799, Final residual = 0.00906149, No Iterations 2
GAMG:  Solving for p, Initial residual = 0.00722508, Final residual = 0.000660341, No Iterations 1
GAMG:  Solving for p, Initial residual = 0.0063231, Final residual = 0.000356479, No Iterations 1
GAMG:  Solving for p, Initial residual = 0.00440954, Final residual = 0.000259578, No Iterations 1
time step continuity errors : sum local = 0.0679738, global = -0.00130587, cumulative = 0.0994288
smoothSolver:  Solving for omega, Initial residual = 0.0983847, Final residual = 0.00416142, No Iterations 2
smoothSolver:  Solving for k, Initial residual = 0.0850087, Final residual = 0.00655845, No Iterations 2
ExecutionTime = 2.87 s  ClockTime = 4 s

scalarTransport execute: age
smoothSolver:  Solving for age, Initial residual = 0.0930448, Final residual = 0.00812822, No Iterations 8

Time = 56

smoothSolver:  Solving for Ux, Initial residual = 0.0853125, Final residual = 0.00532976, No Iterations 3
smoothSolver:  Solving for Uy, Initial residual = 0.0951584, Final residual = 0.00920157, No Iterations 2
GAMG:  Solving for p, Initial residual = 0.00783297, Final residual = 0.000677505, No Iterations 1
GAMG:  Solving for p, Initial residual = 0.00573984, Final residual = 0.000366098, No Iterations 1
GAMG:  Solving for p, Initial residual = 0.00481517, Final residual = 0.000289155, No Iterations 1
time step continuity errors : sum local = 0.0759415, global = -0.00107583, cumulative = 0.098353
smoothSolver:  Solving for omega, Initial residual = 0.114483, Final residual = 0.00995285, No Iterations 1
smoothSolver:  Solving for k, Initial residual = 0.0840915, Final residual = 0.00536937, No Iterations 2
ExecutionTime = 2.92 s  ClockTime = 4 s

scalarTransport execute: age
smoothSolver:  Solving for age, Initial residual = 0.0975111, Final residual = 0.00804715, No Iterations 8

Time = 57

smoothSolver:  Solving for Ux, Initial residual = 0.0927282, Final residual = 0.00860416, No Iterations 2
smoothSolver:  Solving for Uy, Initial residual = 0.0977248, Final residual = 0.0092504, No Iterations 2
GAMG:  Solving for p, Initial residual = 0.00744624, Final residual = 0.000651826, No Iterations 1
GAMG:  Solving for p, Initial residual = 0.00583954, Final residual = 0.000369572, No Iterations 1
GAMG:  Solving for p, Initial residual = 0.0039999, Final residual = 0.000253978, No Iterations 1
time step continuity errors : sum local = 0.0673076, global = -0.00126251, cumulative = 0.0970905
smoothSolver:  Solving for omega, Initial residual = 0.120963, Final residual = 0.00471194, No Iterations 2
smoothSolver:  Solving for k, Initial residual = 0.0964335, Final residual = 0.00750358, No Iterations 2
ExecutionTime = 2.97 s  ClockTime = 4 s

scalarTransport execute: age
smoothSolver:  Solving for age, Initial residual = 0.101602, Final residual = 0.0081345, No Iterations 8

Time = 58

smoothSolver:  Solving for Ux, Initial residual = 0.0851873, Final residual = 0.00826988, No Iterations 2
smoothSolver:  Solving for Uy, Initial residual = 0.0972621, Final residual = 0.0093583, No Iterations 2
GAMG:  Solving for p, Initial residual = 0.00789347, Final residual = 0.00062406, No Iterations 1
GAMG:  Solving for p, Initial residual = 0.00473737, Final residual = 0.000315582, No Iterations 1
GAMG:  Solving for p, Initial residual = 0.00429806, Final residual = 0.000250224, No Iterations 1
time step continuity errors : sum local = 0.0659157, global = -0.00123936, cumulative = 0.0958511
smoothSolver:  Solving for omega, Initial residual = 0.125574, Final residual = 0.011289, No Iterations 1
smoothSolver:  Solving for k, Initial residual = 0.0947396, Final residual = 0.00583331, No Iterations 2
ExecutionTime = 3.01 s  ClockTime = 4 s

scalarTransport execute: age
smoothSolver:  Solving for age, Initial residual = 0.106905, Final residual = 0.010463, No Iterations 7

Time = 59

smoothSolver:  Solving for Ux, Initial residual = 0.0837281, Final residual = 0.00824819, No Iterations 2
smoothSolver:  Solving for Uy, Initial residual = 0.0915061, Final residual = 0.00883737, No Iterations 2
GAMG:  Solving for p, Initial residual = 0.00764637, Final residual = 0.000612678, No Iterations 1
GAMG:  Solving for p, Initial residual = 0.00570754, Final residual = 0.000346909, No Iterations 1
GAMG:  Solving for p, Initial residual = 0.00405433, Final residual = 0.000252395, No Iterations 1
time step continuity errors : sum local = 0.0684052, global = -0.00149659, cumulative = 0.0943545
smoothSolver:  Solving for omega, Initial residual = 0.123038, Final residual = 0.0103465, No Iterations 1
smoothSolver:  Solving for k, Initial residual = 0.084121, Final residual = 0.00602125, No Iterations 2
ExecutionTime = 3.06 s  ClockTime = 4 s

scalarTransport execute: age
smoothSolver:  Solving for age, Initial residual = 0.104935, Final residual = 0.00989167, No Iterations 7

Time = 60

smoothSolver:  Solving for Ux, Initial residual = 0.0826161, Final residual = 0.00769597, No Iterations 2
smoothSolver:  Solving for Uy, Initial residual = 0.0928704, Final residual = 0.00835972, No Iterations 2
GAMG:  Solving for p, Initial residual = 0.00790061, Final residual = 0.00061949, No Iterations 1
GAMG:  Solving for p, Initial residual = 0.00466941, Final residual = 0.000297041, No Iterations 1
GAMG:  Solving for p, Initial residual = 0.0172664, Final residual = 0.000791873, No Iterations 1
time step continuity errors : sum local = 0.214068, global = -0.00213253, cumulative = 0.092222
smoothSolver:  Solving for omega, Initial residual = 0.119062, Final residual = 0.00593039, No Iterations 2
smoothSolver:  Solving for k, Initial residual = 0.0822019, Final residual = 0.00701147, No Iterations 2
ExecutionTime = 3.11 s  ClockTime = 4 s

scalarTransport execute: age
smoothSolver:  Solving for age, Initial residual = 0.102664, Final residual = 0.0092715, No Iterations 7

Time = 61

smoothSolver:  Solving for Ux, Initial residual = 0.116285, Final residual = 0.00807083, No Iterations 2
smoothSolver:  Solving for Uy, Initial residual = 0.125315, Final residual = 0.00873444, No Iterations 2
GAMG:  Solving for p, Initial residual = 0.00784788, Final residual = 0.00070123, No Iterations 1
GAMG:  Solving for p, Initial residual = 0.0051651, Final residual = 0.000337803, No Iterations 1
GAMG:  Solving for p, Initial residual = 0.0163927, Final residual = 0.000745728, No Iterations 1
time step continuity errors : sum local = 0.206166, global = -0.00242011, cumulative = 0.0898019
smoothSolver:  Solving for omega, Initial residual = 0.102949, Final residual = 0.00446982, No Iterations 2
smoothSolver:  Solving for k, Initial residual = 0.0801541, Final residual = 0.00646427, No Iterations 2
ExecutionTime = 3.15 s  ClockTime = 4 s

scalarTransport execute: age
smoothSolver:  Solving for age, Initial residual = 0.096733, Final residual = 0.00859325, No Iterations 7

Time = 62

smoothSolver:  Solving for Ux, Initial residual = 0.111474, Final residual = 0.0074209, No Iterations 2
smoothSolver:  Solving for Uy, Initial residual = 0.123753, Final residual = 0.00770143, No Iterations 2
GAMG:  Solving for p, Initial residual = 0.0077252, Final residual = 0.000654871, No Iterations 1
GAMG:  Solving for p, Initial residual = 0.00500096, Final residual = 0.000323928, No Iterations 1
GAMG:  Solving for p, Initial residual = 0.0159722, Final residual = 0.000740318, No Iterations 1
time step continuity errors : sum local = 0.210756, global = -0.00268504, cumulative = 0.0871168
smoothSolver:  Solving for omega, Initial residual = 0.110778, Final residual = 0.00387636, No Iterations 2
smoothSolver:  Solving for k, Initial residual = 0.0747812, Final residual = 0.00569565, No Iterations 2
ExecutionTime = 3.22 s  ClockTime = 4 s

scalarTransport execute: age
smoothSolver:  Solving for age, Initial residual = 0.091332, Final residual = 0.00843494, No Iterations 7

Time = 63

smoothSolver:  Solving for Ux, Initial residual = 0.111523, Final residual = 0.00700894, No Iterations 2
smoothSolver:  Solving for Uy, Initial residual = 0.123532, Final residual = 0.00751555, No Iterations 2
GAMG:  Solving for p, Initial residual = 0.00758729, Final residual = 0.000633955, No Iterations 1
GAMG:  Solving for p, Initial residual = 0.0105272, Final residual = 0.000524047, No Iterations 1
GAMG:  Solving for p, Initial residual = 0.0130127, Final residual = 0.000678237, No Iterations 1
time step continuity errors : sum local = 0.199278, global = -0.00251094, cumulative = 0.0846059
smoothSolver:  Solving for omega, Initial residual = 0.100563, Final residual = 0.0056904, No Iterations 2
smoothSolver:  Solving for k, Initial residual = 0.0871042, Final residual = 0.00835643, No Iterations 2
ExecutionTime = 3.25 s  ClockTime = 4 s

scalarTransport execute: age
smoothSolver:  Solving for age, Initial residual = 0.0813925, Final residual = 0.00738061, No Iterations 7

Time = 64

smoothSolver:  Solving for Ux, Initial residual = 0.122634, Final residual = 0.00673318, No Iterations 2
smoothSolver:  Solving for Uy, Initial residual = 0.133495, Final residual = 0.00701235, No Iterations 2
GAMG:  Solving for p, Initial residual = 0.0074411, Final residual = 0.000594132, No Iterations 1
GAMG:  Solving for p, Initial residual = 0.00890326, Final residual = 0.000450703, No Iterations 1
GAMG:  Solving for p, Initial residual = 0.0150765, Final residual = 0.000754934, No Iterations 1
time step continuity errors : sum local = 0.229897, global = -0.00242947, cumulative = 0.0821764
smoothSolver:  Solving for omega, Initial residual = 0.0943292, Final residual = 0.00421145, No Iterations 2
smoothSolver:  Solving for k, Initial residual = 0.0744139, Final residual = 0.00617399, No Iterations 2
ExecutionTime = 3.3 s  ClockTime = 5 s

scalarTransport execute: age
smoothSolver:  Solving for age, Initial residual = 0.0747592, Final residual = 0.00703049, No Iterations 7

Time = 65

smoothSolver:  Solving for Ux, Initial residual = 0.128132, Final residual = 0.00686499, No Iterations 2
smoothSolver:  Solving for Uy, Initial residual = 0.138969, Final residual = 0.00709251, No Iterations 2
GAMG:  Solving for p, Initial residual = 0.00737465, Final residual = 0.000602324, No Iterations 1
GAMG:  Solving for p, Initial residual = 0.004365, Final residual = 0.000283896, No Iterations 1
GAMG:  Solving for p, Initial residual = 0.0137667, Final residual = 0.000630349, No Iterations 1
time step continuity errors : sum local = 0.195309, global = -0.00185721, cumulative = 0.0803192
smoothSolver:  Solving for omega, Initial residual = 0.0810633, Final residual = 0.00792568, No Iterations 1
smoothSolver:  Solving for k, Initial residual = 0.066351, Final residual = 0.00419464, No Iterations 2
ExecutionTime = 3.34 s  ClockTime = 5 s

scalarTransport execute: age
smoothSolver:  Solving for age, Initial residual = 0.0664625, Final residual = 0.00659884, No Iterations 7

Time = 66

smoothSolver:  Solving for Ux, Initial residual = 0.10584, Final residual = 0.00597354, No Iterations 2
smoothSolver:  Solving for Uy, Initial residual = 0.117892, Final residual = 0.00653285, No Iterations 2
GAMG:  Solving for p, Initial residual = 0.00695293, Final residual = 0.000545472, No Iterations 1
GAMG:  Solving for p, Initial residual = 0.00354878, Final residual = 0.000242821, No Iterations 1
GAMG:  Solving for p, Initial residual = 0.00358819, Final residual = 0.000209371, No Iterations 1
time step continuity errors : sum local = 0.0668627, global = -0.000979658, cumulative = 0.0793396
smoothSolver:  Solving for omega, Initial residual = 0.0795675, Final residual = 0.00438309, No Iterations 2
smoothSolver:  Solving for k, Initial residual = 0.0822085, Final residual = 0.00614299, No Iterations 2
ExecutionTime = 3.4 s  ClockTime = 5 s

scalarTransport execute: age
smoothSolver:  Solving for age, Initial residual = 0.0623837, Final residual = 0.00511004, No Iterations 8

Time = 67

smoothSolver:  Solving for Ux, Initial residual = 0.0726052, Final residual = 0.00565702, No Iterations 2
smoothSolver:  Solving for Uy, Initial residual = 0.08635, Final residual = 0.00646981, No Iterations 2
GAMG:  Solving for p, Initial residual = 0.00688482, Final residual = 0.000472797, No Iterations 1
GAMG:  Solving for p, Initial residual = 0.00330903, Final residual = 0.000214264, No Iterations 1
GAMG:  Solving for p, Initial residual = 0.00398708, Final residual = 0.000211612, No Iterations 1
time step continuity errors : sum local = 0.0688028, global = -0.000213153, cumulative = 0.0791264
smoothSolver:  Solving for omega, Initial residual = 0.070146, Final residual = 0.00447494, No Iterations 2
smoothSolver:  Solving for k, Initial residual = 0.0784929, Final residual = 0.00718633, No Iterations 2
ExecutionTime = 3.45 s  ClockTime = 5 s

scalarTransport execute: age
smoothSolver:  Solving for age, Initial residual = 0.0579557, Final residual = 0.00479507, No Iterations 8

Time = 68

smoothSolver:  Solving for Ux, Initial residual = 0.068682, Final residual = 0.00531594, No Iterations 2
smoothSolver:  Solving for Uy, Initial residual = 0.0767426, Final residual = 0.00602047, No Iterations 2
GAMG:  Solving for p, Initial residual = 0.00649997, Final residual = 0.000456208, No Iterations 1
GAMG:  Solving for p, Initial residual = 0.00286563, Final residual = 0.000192894, No Iterations 1
GAMG:  Solving for p, Initial residual = 0.00316605, Final residual = 0.000176128, No Iterations 1
time step continuity errors : sum local = 0.0587471, global = 0.000568038, cumulative = 0.0796944
smoothSolver:  Solving for omega, Initial residual = 0.0674291, Final residual = 0.00309164, No Iterations 2
smoothSolver:  Solving for k, Initial residual = 0.0651329, Final residual = 0.00495904, No Iterations 2
ExecutionTime = 3.5 s  ClockTime = 5 s

scalarTransport execute: age
smoothSolver:  Solving for age, Initial residual = 0.0557198, Final residual = 0.00482553, No Iterations 8

Time = 69

smoothSolver:  Solving for Ux, Initial residual = 0.062289, Final residual = 0.00533549, No Iterations 2
smoothSolver:  Solving for Uy, Initial residual = 0.0714937, Final residual = 0.00549601, No Iterations 2
GAMG:  Solving for p, Initial residual = 0.0060356, Final residual = 0.000419334, No Iterations 1
GAMG:  Solving for p, Initial residual = 0.00238181, Final residual = 0.000172325, No Iterations 1
GAMG:  Solving for p, Initial residual = 0.00539859, Final residual = 0.000266122, No Iterations 1
time step continuity errors : sum local = 0.0898902, global = 0.00117336, cumulative = 0.0808678
smoothSolver:  Solving for omega, Initial residual = 0.0868396, Final residual = 0.0037539, No Iterations 2
smoothSolver:  Solving for k, Initial residual = 0.0733089, Final residual = 0.00335854, No Iterations 3
ExecutionTime = 3.54 s  ClockTime = 5 s

scalarTransport execute: age
smoothSolver:  Solving for age, Initial residual = 0.0526357, Final residual = 0.00463077, No Iterations 8

Time = 70

smoothSolver:  Solving for Ux, Initial residual = 0.0553937, Final residual = 0.00531495, No Iterations 2
smoothSolver:  Solving for Uy, Initial residual = 0.0650164, Final residual = 0.00582505, No Iterations 2
GAMG:  Solving for p, Initial residual = 0.00597803, Final residual = 0.000410996, No Iterations 1
GAMG:  Solving for p, Initial residual = 0.0029341, Final residual = 0.00018994, No Iterations 1
GAMG:  Solving for p, Initial residual = 0.0120807, Final residual = 0.000557252, No Iterations 1
time step continuity errors : sum local = 0.190236, global = 0.00178358, cumulative = 0.0826514
smoothSolver:  Solving for omega, Initial residual = 0.0705728, Final residual = 0.00540549, No Iterations 2
smoothSolver:  Solving for k, Initial residual = 0.0820596, Final residual = 0.00416981, No Iterations 3
ExecutionTime = 3.59 s  ClockTime = 5 s

scalarTransport execute: age
smoothSolver:  Solving for age, Initial residual = 0.0523612, Final residual = 0.00473355, No Iterations 8

Time = 71

smoothSolver:  Solving for Ux, Initial residual = 0.0722218, Final residual = 0.00586673, No Iterations 2
smoothSolver:  Solving for Uy, Initial residual = 0.0815495, Final residual = 0.00629092, No Iterations 2
GAMG:  Solving for p, Initial residual = 0.00605558, Final residual = 0.000437505, No Iterations 1
GAMG:  Solving for p, Initial residual = 0.00669176, Final residual = 0.000334815, No Iterations 1
GAMG:  Solving for p, Initial residual = 0.00641843, Final residual = 0.000367053, No Iterations 1
time step continuity errors : sum local = 0.125983, global = 0.00178263, cumulative = 0.084434
smoothSolver:  Solving for omega, Initial residual = 0.0819788, Final residual = 0.00615322, No Iterations 2
smoothSolver:  Solving for k, Initial residual = 0.0858624, Final residual = 0.00495675, No Iterations 3
ExecutionTime = 3.65 s  ClockTime = 5 s

scalarTransport execute: age
smoothSolver:  Solving for age, Initial residual = 0.0500591, Final residual = 0.00461908, No Iterations 8

Time = 72

smoothSolver:  Solving for Ux, Initial residual = 0.074434, Final residual = 0.00617658, No Iterations 2
smoothSolver:  Solving for Uy, Initial residual = 0.0830948, Final residual = 0.00633283, No Iterations 2
GAMG:  Solving for p, Initial residual = 0.00568297, Final residual = 0.000445292, No Iterations 1
GAMG:  Solving for p, Initial residual = 0.00329614, Final residual = 0.000206775, No Iterations 1
GAMG:  Solving for p, Initial residual = 0.0161987, Final residual = 0.000745732, No Iterations 1
time step continuity errors : sum local = 0.25726, global = 0.00206358, cumulative = 0.0864976
smoothSolver:  Solving for omega, Initial residual = 0.0710323, Final residual = 0.00551538, No Iterations 2
smoothSolver:  Solving for k, Initial residual = 0.0707199, Final residual = 0.00413618, No Iterations 3
ExecutionTime = 3.7 s  ClockTime = 5 s

scalarTransport execute: age
smoothSolver:  Solving for age, Initial residual = 0.0493782, Final residual = 0.00470655, No Iterations 8

Time = 73

smoothSolver:  Solving for Ux, Initial residual = 0.0893798, Final residual = 0.00662619, No Iterations 2
smoothSolver:  Solving for Uy, Initial residual = 0.102534, Final residual = 0.0070879, No Iterations 2
GAMG:  Solving for p, Initial residual = 0.00567096, Final residual = 0.000480122, No Iterations 1
GAMG:  Solving for p, Initial residual = 0.00876745, Final residual = 0.000421805, No Iterations 1
GAMG:  Solving for p, Initial residual = 0.00783391, Final residual = 0.000436394, No Iterations 1
time step continuity errors : sum local = 0.148467, global = 0.00209811, cumulative = 0.0885957
smoothSolver:  Solving for omega, Initial residual = 0.0727652, Final residual = 0.00503695, No Iterations 2
smoothSolver:  Solving for k, Initial residual = 0.0694427, Final residual = 0.00386359, No Iterations 3
ExecutionTime = 3.74 s  ClockTime = 5 s

scalarTransport execute: age
smoothSolver:  Solving for age, Initial residual = 0.0475729, Final residual = 0.00451955, No Iterations 8

Time = 74

smoothSolver:  Solving for Ux, Initial residual = 0.0908693, Final residual = 0.0067195, No Iterations 2
smoothSolver:  Solving for Uy, Initial residual = 0.106133, Final residual = 0.00704287, No Iterations 2
GAMG:  Solving for p, Initial residual = 0.00515293, Final residual = 0.000473073, No Iterations 1
GAMG:  Solving for p, Initial residual = 0.00387827, Final residual = 0.000229635, No Iterations 1
GAMG:  Solving for p, Initial residual = 0.00930985, Final residual = 0.000430542, No Iterations 1
time step continuity errors : sum local = 0.14615, global = 0.0017175, cumulative = 0.0903132
smoothSolver:  Solving for omega, Initial residual = 0.0667771, Final residual = 0.00333564, No Iterations 2
smoothSolver:  Solving for k, Initial residual = 0.0499603, Final residual = 0.00401095, No Iterations 2
ExecutionTime = 3.8 s  ClockTime = 5 s

scalarTransport execute: age
smoothSolver:  Solving for age, Initial residual = 0.0485788, Final residual = 0.00455547, No Iterations 8

Time = 75

smoothSolver:  Solving for Ux, Initial residual = 0.0753192, Final residual = 0.00576912, No Iterations 2
smoothSolver:  Solving for Uy, Initial residual = 0.085834, Final residual = 0.00657655, No Iterations 2
GAMG:  Solving for p, Initial residual = 0.00459255, Final residual = 0.000420028, No Iterations 1
GAMG:  Solving for p, Initial residual = 0.00350436, Final residual = 0.000218859, No Iterations 1
GAMG:  Solving for p, Initial residual = 0.0124661, Final residual = 0.000574557, No Iterations 1
time step continuity errors : sum local = 0.19114, global = 0.00170814, cumulative = 0.0920213
smoothSolver:  Solving for omega, Initial residual = 0.0533173, Final residual = 0.00231971, No Iterations 2
smoothSolver:  Solving for k, Initial residual = 0.0436539, Final residual = 0.00356644, No Iterations 2
ExecutionTime = 3.87 s  ClockTime = 5 s

scalarTransport execute: age
smoothSolver:  Solving for age, Initial residual = 0.0463715, Final residual = 0.00429276, No Iterations 8

Time = 76

smoothSolver:  Solving for Ux, Initial residual = 0.0794553, Final residual = 0.00612654, No Iterations 2
smoothSolver:  Solving for Uy, Initial residual = 0.0926421, Final residual = 0.00643827, No Iterations 2
GAMG:  Solving for p, Initial residual = 0.00466315, Final residual = 0.000444029, No Iterations 1
GAMG:  Solving for p, Initial residual = 0.0034615, Final residual = 0.000214006, No Iterations 1
GAMG:  Solving for p, Initial residual = 0.00280723, Final residual = 0.000171102, No Iterations 1
time step continuity errors : sum local = 0.0564114, global = 0.00122719, cumulative = 0.0932485
smoothSolver:  Solving for omega, Initial residual = 0.0563971, Final residual = 0.00244475, No Iterations 2
smoothSolver:  Solving for k, Initial residual = 0.046796, Final residual = 0.00351268, No Iterations 2
ExecutionTime = 3.93 s  ClockTime = 5 s

scalarTransport execute: age
smoothSolver:  Solving for age, Initial residual = 0.0464102, Final residual = 0.00415029, No Iterations 8

Time = 77

smoothSolver:  Solving for Ux, Initial residual = 0.0622153, Final residual = 0.00555555, No Iterations 2
smoothSolver:  Solving for Uy, Initial residual = 0.0733793, Final residual = 0.00565554, No Iterations 2
GAMG:  Solving for p, Initial residual = 0.00449661, Final residual = 0.00041574, No Iterations 1
GAMG:  Solving for p, Initial residual = 0.00302966, Final residual = 0.000194699, No Iterations 1
GAMG:  Solving for p, Initial residual = 0.00933788, Final residual = 0.0004343, No Iterations 1
time step continuity errors : sum local = 0.140259, global = 0.00133473, cumulative = 0.0945833
smoothSolver:  Solving for omega, Initial residual = 0.0548396, Final residual = 0.00193073, No Iterations 2
smoothSolver:  Solving for k, Initial residual = 0.0443137, Final residual = 0.00263045, No Iterations 2
ExecutionTime = 4.03 s  ClockTime = 5 s

scalarTransport execute: age
smoothSolver:  Solving for age, Initial residual = 0.045357, Final residual = 0.00389563, No Iterations 8

Time = 78

smoothSolver:  Solving for Ux, Initial residual = 0.0734201, Final residual = 0.00563561, No Iterations 2
smoothSolver:  Solving for Uy, Initial residual = 0.0839186, Final residual = 0.00596618, No Iterations 2
GAMG:  Solving for p, Initial residual = 0.00449924, Final residual = 0.000420918, No Iterations 1
GAMG:  Solving for p, Initial residual = 0.00324743, Final residual = 0.000200689, No Iterations 1
GAMG:  Solving for p, Initial residual = 0.00220771, Final residual = 0.000140746, No Iterations 1
time step continuity errors : sum local = 0.0451862, global = 0.00108622, cumulative = 0.0956695
smoothSolver:  Solving for omega, Initial residual = 0.052674, Final residual = 0.00228434, No Iterations 2
smoothSolver:  Solving for k, Initial residual = 0.0433071, Final residual = 0.00345769, No Iterations 2
[...]
time step continuity errors : sum local = 0.0289156, global = -0.000367499, cumulative = 0.0723683
smoothSolver:  Solving for omega, Initial residual = 0.0895849, Final residual = 0.00687757, No Iterations 1
smoothSolver:  Solving for k, Initial residual = 0.0743297, Final residual = 0.00289875, No Iterations 2
ExecutionTime = 29.19 s  ClockTime = 35 s

scalarTransport execute: age
smoothSolver:  Solving for age, Initial residual = 0.0103295, Final residual = 0.00101548, No Iterations 6

Time = 588

smoothSolver:  Solving for Ux, Initial residual = 0.0391511, Final residual = 0.0026047, No Iterations 2
smoothSolver:  Solving for Uy, Initial residual = 0.0408487, Final residual = 0.00326405, No Iterations 2
GAMG:  Solving for p, Initial residual = 0.00189307, Final residual = 6.83669e-05, No Iterations 2
GAMG:  Solving for p, Initial residual = 0.00240747, Final residual = 0.000135986, No Iterations 1
GAMG:  Solving for p, Initial residual = 0.000852915, Final residual = 7.05212e-05, No Iterations 1
time step continuity errors : sum local = 0.0276198, global = 0.000236574, cumulative = 0.0726048
smoothSolver:  Solving for omega, Initial residual = 0.115779, Final residual = 0.00580482, No Iterations 1
smoothSolver:  Solving for k, Initial residual = 0.0587465, Final residual = 0.00369523, No Iterations 2
ExecutionTime = 29.23 s  ClockTime = 35 s

scalarTransport execute: age
smoothSolver:  Solving for age, Initial residual = 0.00991916, Final residual = 0.000791974, No Iterations 7

Time = 589

smoothSolver:  Solving for Ux, Initial residual = 0.0354586, Final residual = 0.00302734, No Iterations 2
smoothSolver:  Solving for Uy, Initial residual = 0.0387916, Final residual = 0.0035782, No Iterations 2
GAMG:  Solving for p, Initial residual = 0.0019983, Final residual = 8.44276e-05, No Iterations 2
GAMG:  Solving for p, Initial residual = 0.00241735, Final residual = 0.000132627, No Iterations 1
GAMG:  Solving for p, Initial residual = 0.000862037, Final residual = 6.70128e-05, No Iterations 1
time step continuity errors : sum local = 0.026673, global = -0.00045696, cumulative = 0.0721479
smoothSolver:  Solving for omega, Initial residual = 0.0611129, Final residual = 0.00513569, No Iterations 1
smoothSolver:  Solving for k, Initial residual = 0.0543031, Final residual = 0.00273169, No Iterations 2
ExecutionTime = 29.28 s  ClockTime = 35 s

scalarTransport execute: age
smoothSolver:  Solving for age, Initial residual = 0.0105069, Final residual = 0.000794805, No Iterations 7

Time = 590

smoothSolver:  Solving for Ux, Initial residual = 0.0404403, Final residual = 0.00299083, No Iterations 2
smoothSolver:  Solving for Uy, Initial residual = 0.04096, Final residual = 0.0039151, No Iterations 2
GAMG:  Solving for p, Initial residual = 0.00203963, Final residual = 9.48382e-05, No Iterations 2
GAMG:  Solving for p, Initial residual = 0.00216382, Final residual = 0.0001356, No Iterations 1
GAMG:  Solving for p, Initial residual = 0.000672558, Final residual = 6.43374e-05, No Iterations 1
time step continuity errors : sum local = 0.0252102, global = 0.000272735, cumulative = 0.0724206
smoothSolver:  Solving for omega, Initial residual = 0.0724277, Final residual = 0.00531118, No Iterations 1
smoothSolver:  Solving for k, Initial residual = 0.0489353, Final residual = 0.00273867, No Iterations 2
ExecutionTime = 29.32 s  ClockTime = 35 s

scalarTransport execute: age
smoothSolver:  Solving for age, Initial residual = 0.0109549, Final residual = 0.000859267, No Iterations 7

Time = 591

smoothSolver:  Solving for Ux, Initial residual = 0.0337893, Final residual = 0.0029968, No Iterations 2
smoothSolver:  Solving for Uy, Initial residual = 0.0354931, Final residual = 0.00202681, No Iterations 3
GAMG:  Solving for p, Initial residual = 0.00203592, Final residual = 8.59339e-05, No Iterations 2
GAMG:  Solving for p, Initial residual = 0.00189525, Final residual = 0.000122398, No Iterations 1
GAMG:  Solving for p, Initial residual = 0.00061655, Final residual = 5.45302e-05, No Iterations 1
time step continuity errors : sum local = 0.0215867, global = -0.000108171, cumulative = 0.0723124
smoothSolver:  Solving for omega, Initial residual = 0.0569898, Final residual = 0.00167162, No Iterations 2
smoothSolver:  Solving for k, Initial residual = 0.0603806, Final residual = 0.00208208, No Iterations 2
ExecutionTime = 29.37 s  ClockTime = 35 s

scalarTransport execute: age
smoothSolver:  Solving for age, Initial residual = 0.0105106, Final residual = 0.000803753, No Iterations 7

Time = 592

smoothSolver:  Solving for Ux, Initial residual = 0.0341434, Final residual = 0.00262354, No Iterations 2
smoothSolver:  Solving for Uy, Initial residual = 0.0332044, Final residual = 0.0032099, No Iterations 2
GAMG:  Solving for p, Initial residual = 0.00183341, Final residual = 7.25541e-05, No Iterations 2
GAMG:  Solving for p, Initial residual = 0.00200633, Final residual = 0.000118121, No Iterations 1
GAMG:  Solving for p, Initial residual = 0.000661497, Final residual = 5.18244e-05, No Iterations 1
time step continuity errors : sum local = 0.0202881, global = 0.000525144, cumulative = 0.0728376
smoothSolver:  Solving for omega, Initial residual = 0.0966305, Final residual = 0.00484342, No Iterations 1
smoothSolver:  Solving for k, Initial residual = 0.0461345, Final residual = 0.00283986, No Iterations 2
ExecutionTime = 29.42 s  ClockTime = 35 s

scalarTransport execute: age
smoothSolver:  Solving for age, Initial residual = 0.0102943, Final residual = 0.000775983, No Iterations 7

Time = 593

smoothSolver:  Solving for Ux, Initial residual = 0.0301965, Final residual = 0.00252987, No Iterations 2
smoothSolver:  Solving for Uy, Initial residual = 0.0328884, Final residual = 0.00298221, No Iterations 2
GAMG:  Solving for p, Initial residual = 0.00192406, Final residual = 6.79123e-05, No Iterations 2
GAMG:  Solving for p, Initial residual = 0.00189534, Final residual = 0.000118332, No Iterations 1
GAMG:  Solving for p, Initial residual = 0.000649646, Final residual = 5.94134e-05, No Iterations 1
time step continuity errors : sum local = 0.0236077, global = -0.000338395, cumulative = 0.0724992
smoothSolver:  Solving for omega, Initial residual = 0.0539857, Final residual = 0.00501884, No Iterations 1
smoothSolver:  Solving for k, Initial residual = 0.0544834, Final residual = 0.00293522, No Iterations 2
ExecutionTime = 29.47 s  ClockTime = 35 s

scalarTransport execute: age
smoothSolver:  Solving for age, Initial residual = 0.00999593, Final residual = 0.000790395, No Iterations 7

Time = 594

smoothSolver:  Solving for Ux, Initial residual = 0.036745, Final residual = 0.00256155, No Iterations 2
smoothSolver:  Solving for Uy, Initial residual = 0.0361821, Final residual = 0.00330576, No Iterations 2
GAMG:  Solving for p, Initial residual = 0.00192321, Final residual = 7.07481e-05, No Iterations 2
GAMG:  Solving for p, Initial residual = 0.00226687, Final residual = 0.000134856, No Iterations 1
GAMG:  Solving for p, Initial residual = 0.000732807, Final residual = 6.16067e-05, No Iterations 1
time step continuity errors : sum local = 0.0241704, global = 0.000390424, cumulative = 0.0728896
smoothSolver:  Solving for omega, Initial residual = 0.0685015, Final residual = 0.00493017, No Iterations 1
smoothSolver:  Solving for k, Initial residual = 0.0523006, Final residual = 0.00285362, No Iterations 2
ExecutionTime = 29.52 s  ClockTime = 36 s

scalarTransport execute: age
smoothSolver:  Solving for age, Initial residual = 0.00980515, Final residual = 0.00078904, No Iterations 7

Time = 595

smoothSolver:  Solving for Ux, Initial residual = 0.0346827, Final residual = 0.00251635, No Iterations 2
smoothSolver:  Solving for Uy, Initial residual = 0.0373236, Final residual = 0.00340298, No Iterations 2
GAMG:  Solving for p, Initial residual = 0.00202865, Final residual = 7.93057e-05, No Iterations 2
GAMG:  Solving for p, Initial residual = 0.00197368, Final residual = 0.000127728, No Iterations 1
GAMG:  Solving for p, Initial residual = 0.0008998, Final residual = 6.62006e-05, No Iterations 1
time step continuity errors : sum local = 0.0261939, global = -0.000152361, cumulative = 0.0727372
smoothSolver:  Solving for omega, Initial residual = 0.0756491, Final residual = 0.00646123, No Iterations 1
smoothSolver:  Solving for k, Initial residual = 0.0696877, Final residual = 0.00341171, No Iterations 2
ExecutionTime = 29.57 s  ClockTime = 36 s

scalarTransport execute: age
smoothSolver:  Solving for age, Initial residual = 0.0105074, Final residual = 0.00104604, No Iterations 6

Time = 596

smoothSolver:  Solving for Ux, Initial residual = 0.0381978, Final residual = 0.00265082, No Iterations 2
smoothSolver:  Solving for Uy, Initial residual = 0.0389283, Final residual = 0.0032868, No Iterations 2
GAMG:  Solving for p, Initial residual = 0.00187007, Final residual = 6.6523e-05, No Iterations 2
GAMG:  Solving for p, Initial residual = 0.00212515, Final residual = 0.000119407, No Iterations 1
GAMG:  Solving for p, Initial residual = 0.000623116, Final residual = 5.37723e-05, No Iterations 1
time step continuity errors : sum local = 0.0210565, global = 0.000361929, cumulative = 0.0730992
smoothSolver:  Solving for omega, Initial residual = 0.0942003, Final residual = 0.00502705, No Iterations 1
smoothSolver:  Solving for k, Initial residual = 0.062753, Final residual = 0.00321763, No Iterations 2
ExecutionTime = 29.62 s  ClockTime = 36 s

scalarTransport execute: age
smoothSolver:  Solving for age, Initial residual = 0.0102851, Final residual = 0.00101016, No Iterations 6

Time = 597

smoothSolver:  Solving for Ux, Initial residual = 0.0340256, Final residual = 0.00243718, No Iterations 2
smoothSolver:  Solving for Uy, Initial residual = 0.0361228, Final residual = 0.00348782, No Iterations 2
GAMG:  Solving for p, Initial residual = 0.00191117, Final residual = 8.14374e-05, No Iterations 2
GAMG:  Solving for p, Initial residual = 0.00299524, Final residual = 0.000179096, No Iterations 1
GAMG:  Solving for p, Initial residual = 0.00137987, Final residual = 0.000106175, No Iterations 1
time step continuity errors : sum local = 0.0422387, global = -0.000393548, cumulative = 0.0727056
smoothSolver:  Solving for omega, Initial residual = 0.104276, Final residual = 0.00879882, No Iterations 1
smoothSolver:  Solving for k, Initial residual = 0.0777193, Final residual = 0.00621092, No Iterations 2
ExecutionTime = 29.67 s  ClockTime = 36 s

scalarTransport execute: age
smoothSolver:  Solving for age, Initial residual = 0.0110925, Final residual = 0.000958977, No Iterations 7

Time = 598

smoothSolver:  Solving for Ux, Initial residual = 0.0459757, Final residual = 0.0029145, No Iterations 2
smoothSolver:  Solving for Uy, Initial residual = 0.0453233, Final residual = 0.00371942, No Iterations 2
GAMG:  Solving for p, Initial residual = 0.00193068, Final residual = 6.57394e-05, No Iterations 2
GAMG:  Solving for p, Initial residual = 0.00181452, Final residual = 0.00010887, No Iterations 1
GAMG:  Solving for p, Initial residual = 0.000567513, Final residual = 4.96129e-05, No Iterations 1
time step continuity errors : sum local = 0.0192815, global = 0.000322048, cumulative = 0.0730277
smoothSolver:  Solving for omega, Initial residual = 0.0794551, Final residual = 0.00549825, No Iterations 1
smoothSolver:  Solving for k, Initial residual = 0.0600724, Final residual = 0.00354427, No Iterations 2
ExecutionTime = 29.72 s  ClockTime = 36 s

scalarTransport execute: age
smoothSolver:  Solving for age, Initial residual = 0.01137, Final residual = 0.000883992, No Iterations 7

Time = 599

smoothSolver:  Solving for Ux, Initial residual = 0.031848, Final residual = 0.00250377, No Iterations 2
smoothSolver:  Solving for Uy, Initial residual = 0.0341137, Final residual = 0.00299879, No Iterations 2
GAMG:  Solving for p, Initial residual = 0.0018021, Final residual = 6.3404e-05, No Iterations 2
GAMG:  Solving for p, Initial residual = 0.00204098, Final residual = 0.000117321, No Iterations 1
GAMG:  Solving for p, Initial residual = 0.000554361, Final residual = 5.15982e-05, No Iterations 1
time step continuity errors : sum local = 0.0205518, global = -0.000362148, cumulative = 0.0726655
smoothSolver:  Solving for omega, Initial residual = 0.069035, Final residual = 0.00552302, No Iterations 1
smoothSolver:  Solving for k, Initial residual = 0.0588237, Final residual = 0.00297341, No Iterations 2
ExecutionTime = 29.77 s  ClockTime = 36 s

scalarTransport execute: age
smoothSolver:  Solving for age, Initial residual = 0.0102227, Final residual = 0.00100902, No Iterations 6

Time = 600

smoothSolver:  Solving for Ux, Initial residual = 0.0358977, Final residual = 0.00249174, No Iterations 2
smoothSolver:  Solving for Uy, Initial residual = 0.0354412, Final residual = 0.00297226, No Iterations 2
GAMG:  Solving for p, Initial residual = 0.00170224, Final residual = 5.71068e-05, No Iterations 2
GAMG:  Solving for p, Initial residual = 0.00175096, Final residual = 0.000105728, No Iterations 1
GAMG:  Solving for p, Initial residual = 0.000567757, Final residual = 5.05812e-05, No Iterations 1
time step continuity errors : sum local = 0.0198948, global = 0.000354384, cumulative = 0.0730199
smoothSolver:  Solving for omega, Initial residual = 0.0797797, Final residual = 0.00486076, No Iterations 1
smoothSolver:  Solving for k, Initial residual = 0.0552299, Final residual = 0.00327529, No Iterations 2
ExecutionTime = 29.82 s  ClockTime = 36 s

scalarTransport execute: age
smoothSolver:  Solving for age, Initial residual = 0.00978312, Final residual = 0.000739486, No Iterations 7

Time = 601

smoothSolver:  Solving for Ux, Initial residual = 0.0308082, Final residual = 0.00243109, No Iterations 2
smoothSolver:  Solving for Uy, Initial residual = 0.0337645, Final residual = 0.00302833, No Iterations 2
GAMG:  Solving for p, Initial residual = 0.001795, Final residual = 5.6852e-05, No Iterations 2
GAMG:  Solving for p, Initial residual = 0.00193078, Final residual = 0.000106463, No Iterations 1
GAMG:  Solving for p, Initial residual = 0.00124614, Final residual = 7.875e-05, No Iterations 1
time step continuity errors : sum local = 0.0314083, global = -0.000438437, cumulative = 0.0725815
smoothSolver:  Solving for omega, Initial residual = 0.0697462, Final residual = 0.00550145, No Iterations 1
smoothSolver:  Solving for k, Initial residual = 0.0629678, Final residual = 0.00417787, No Iterations 2
ExecutionTime = 29.87 s  ClockTime = 36 s

scalarTransport execute: age
smoothSolver:  Solving for age, Initial residual = 0.0105952, Final residual = 0.000806053, No Iterations 7

Time = 602

smoothSolver:  Solving for Ux, Initial residual = 0.0379986, Final residual = 0.00232946, No Iterations 2
smoothSolver:  Solving for Uy, Initial residual = 0.0375959, Final residual = 0.00303337, No Iterations 2
GAMG:  Solving for p, Initial residual = 0.00165295, Final residual = 6.35727e-05, No Iterations 2
GAMG:  Solving for p, Initial residual = 0.00164683, Final residual = 0.000102576, No Iterations 1
GAMG:  Solving for p, Initial residual = 0.000583135, Final residual = 5.03181e-05, No Iterations 1
time step continuity errors : sum local = 0.0197369, global = 0.000358327, cumulative = 0.0729398
smoothSolver:  Solving for omega, Initial residual = 0.0737424, Final residual = 0.004735, No Iterations 1
smoothSolver:  Solving for k, Initial residual = 0.0592195, Final residual = 0.00377522, No Iterations 2
ExecutionTime = 29.91 s  ClockTime = 36 s

scalarTransport execute: age
smoothSolver:  Solving for age, Initial residual = 0.00968199, Final residual = 0.000915338, No Iterations 6

Time = 603

smoothSolver:  Solving for Ux, Initial residual = 0.0301867, Final residual = 0.00231211, No Iterations 2
smoothSolver:  Solving for Uy, Initial residual = 0.0325583, Final residual = 0.0030645, No Iterations 2
GAMG:  Solving for p, Initial residual = 0.0017853, Final residual = 7.10559e-05, No Iterations 2
GAMG:  Solving for p, Initial residual = 0.00169931, Final residual = 0.000107043, No Iterations 1
GAMG:  Solving for p, Initial residual = 0.000511433, Final residual = 4.91397e-05, No Iterations 1
time step continuity errors : sum local = 0.0196377, global = -0.000196665, cumulative = 0.0727431
smoothSolver:  Solving for omega, Initial residual = 0.0607835, Final residual = 0.00450874, No Iterations 1
smoothSolver:  Solving for k, Initial residual = 0.054196, Final residual = 0.00254556, No Iterations 2
ExecutionTime = 29.97 s  ClockTime = 36 s

scalarTransport execute: age
smoothSolver:  Solving for age, Initial residual = 0.00997477, Final residual = 0.000958656, No Iterations 6

Time = 604

smoothSolver:  Solving for Ux, Initial residual = 0.035092, Final residual = 0.00234654, No Iterations 2
smoothSolver:  Solving for Uy, Initial residual = 0.0352738, Final residual = 0.00314376, No Iterations 2
GAMG:  Solving for p, Initial residual = 0.00165567, Final residual = 6.15549e-05, No Iterations 2
GAMG:  Solving for p, Initial residual = 0.00270393, Final residual = 0.000140916, No Iterations 1
GAMG:  Solving for p, Initial residual = 0.000835307, Final residual = 6.68287e-05, No Iterations 1
time step continuity errors : sum local = 0.0263937, global = 0.000400859, cumulative = 0.073144
smoothSolver:  Solving for omega, Initial residual = 0.0696906, Final residual = 0.00504263, No Iterations 1
smoothSolver:  Solving for k, Initial residual = 0.0609071, Final residual = 0.00398766, No Iterations 2
ExecutionTime = 30.03 s  ClockTime = 36 s

scalarTransport execute: age
smoothSolver:  Solving for age, Initial residual = 0.00971943, Final residual = 0.000899427, No Iterations 6

Time = 605

smoothSolver:  Solving for Ux, Initial residual = 0.0351606, Final residual = 0.00222692, No Iterations 2
smoothSolver:  Solving for Uy, Initial residual = 0.0383973, Final residual = 0.00310039, No Iterations 2
GAMG:  Solving for p, Initial residual = 0.0017736, Final residual = 6.10271e-05, No Iterations 2
GAMG:  Solving for p, Initial residual = 0.00206895, Final residual = 0.00011913, No Iterations 1
GAMG:  Solving for p, Initial residual = 0.000997653, Final residual = 7.30745e-05, No Iterations 1
time step continuity errors : sum local = 0.0291644, global = -0.000281746, cumulative = 0.0728623
smoothSolver:  Solving for omega, Initial residual = 0.088497, Final residual = 0.0063871, No Iterations 1
smoothSolver:  Solving for k, Initial residual = 0.067343, Final residual = 0.00475722, No Iterations 2
ExecutionTime = 30.08 s  ClockTime = 36 s

scalarTransport execute: age
smoothSolver:  Solving for age, Initial residual = 0.0103168, Final residual = 0.000949198, No Iterations 6

Time = 606

smoothSolver:  Solving for Ux, Initial residual = 0.0365838, Final residual = 0.0024228, No Iterations 2
smoothSolver:  Solving for Uy, Initial residual = 0.0386016, Final residual = 0.00335161, No Iterations 2
GAMG:  Solving for p, Initial residual = 0.0016464, Final residual = 5.71208e-05, No Iterations 2
GAMG:  Solving for p, Initial residual = 0.00149092, Final residual = 8.73533e-05, No Iterations 1
GAMG:  Solving for p, Initial residual = 0.000565119, Final residual = 4.4928e-05, No Iterations 1
time step continuity errors : sum local = 0.017716, global = 0.000339752, cumulative = 0.073202
smoothSolver:  Solving for omega, Initial residual = 0.0614343, Final residual = 0.00485289, No Iterations 1
smoothSolver:  Solving for k, Initial residual = 0.0591595, Final residual = 0.00300842, No Iterations 2
ExecutionTime = 30.12 s  ClockTime = 36 s

scalarTransport execute: age
smoothSolver:  Solving for age, Initial residual = 0.0102568, Final residual = 0.00101195, No Iterations 6

Time = 607

smoothSolver:  Solving for Ux, Initial residual = 0.0305362, Final residual = 0.00235967, No Iterations 2
smoothSolver:  Solving for Uy, Initial residual = 0.0325841, Final residual = 0.00178074, No Iterations 3
