/*---------------------------------------------------------------------------*\
| =========                 |                                                 |
| \\      /  F ield         | OpenFOAM: The Open Source CFD Toolbox           |
|  \\    /   O peration     | Version:  v2012                                 |
|   \\  /    A nd           | Website:  www.openfoam.com                      |
|    \\/     M anipulation  |                                                 |
\*---------------------------------------------------------------------------*/
Build  : _7bdb509494-20201222 OPENFOAM=2012
Arch   : "LSB;label=32;scalar=64"
Exec   : simpleFoam
Date   : Feb 24 2023
Time   : 01:59:55
Host   : johnsDesktop
PID    : 21676
I/O    : uncollated
Case   : /home/john/of_runs/cases/dbl_0_58_148_6
nProcs : 1
trapFpe: Floating point exception trapping enabled (FOAM_SIGFPE).
fileModificationChecking : Monitoring run-time modified files using timeStampMaster (fileModificationSkew 5, maxFileModificationPolls 20)
allowSystemOperations : Allowing user-supplied system call operations

// * * * * * * * * * * * * * * * * * * * * * * * * * * * * * * * * * * * * * //
Create time

Create mesh for time = 0


SIMPLE: convergence criteria
    field p	 tolerance 1e-06
    field U	 tolerance 1e-06
    field "(k|epsilon|omega|f|v2|age)"	 tolerance 1e-05

Reading field p

Reading field U

Reading/calculating face flux field phi

Selecting incompressible transport model Newtonian
Selecting turbulence model type RAS
Selecting RAS turbulence model kOmegaSST
Selecting patchDistMethod meshWave
RAS
{
    RASModel        kOmegaSST;
    turbulence      on;
    printCoeffs     on;
    alphaK1         0.85;
    alphaK2         1;
    alphaOmega1     0.5;
    alphaOmega2     0.856;
    gamma1          0.555556;
    gamma2          0.44;
    beta1           0.075;
    beta2           0.0828;
    betaStar        0.09;
    a1              0.31;
    b1              1;
    c1              10;
    F3              false;
    decayControl    false;
    kInf            0;
    omegaInf        0;
}

No MRF models present

No finite volume options present

Starting time loop

Selecting finite volume options type scalarSemiImplicitSource
    Source: unitySource
    - selecting all cells
    - selected 6502 cell(s) with volume 0.03142
Time = 1

smoothSolver:  Solving for Ux, Initial residual = 0, Final residual = 0, No Iterations 0
smoothSolver:  Solving for Uy, Initial residual = 1, Final residual = 0.0703717, No Iterations 1
GAMG:  Solving for p, Initial residual = 1, Final residual = 0.058343, No Iterations 7
time step continuity errors : sum local = 0.00371375, global = -0.000390718, cumulative = -0.000390718
smoothSolver:  Solving for omega, Initial residual = 0.0394557, Final residual = 0.00375406, No Iterations 2
smoothSolver:  Solving for k, Initial residual = 1, Final residual = 0.0670002, No Iterations 2
ExecutionTime = 0.04 s  ClockTime = 0 s

scalarTransport execute: age
smoothSolver:  Solving for age, Initial residual = 1, Final residual = 0.0990166, No Iterations 6

Time = 2

smoothSolver:  Solving for Ux, Initial residual = 0.44229, Final residual = 0.0412941, No Iterations 5
smoothSolver:  Solving for Uy, Initial residual = 0.247797, Final residual = 0.0244937, No Iterations 4
GAMG:  Solving for p, Initial residual = 0.0641823, Final residual = 0.00635742, No Iterations 3
time step continuity errors : sum local = 0.0465293, global = 0.00429454, cumulative = 0.00390382
smoothSolver:  Solving for omega, Initial residual = 0.0440084, Final residual = 0.00433499, No Iterations 1
smoothSolver:  Solving for k, Initial residual = 0.282135, Final residual = 0.0215468, No Iterations 3
ExecutionTime = 0.05 s  ClockTime = 0 s

scalarTransport execute: age
smoothSolver:  Solving for age, Initial residual = 0.568332, Final residual = 0.048687, No Iterations 8

Time = 3

smoothSolver:  Solving for Ux, Initial residual = 0.182505, Final residual = 0.012304, No Iterations 5
smoothSolver:  Solving for Uy, Initial residual = 0.104618, Final residual = 0.00885955, No Iterations 4
GAMG:  Solving for p, Initial residual = 0.0522497, Final residual = 0.00393089, No Iterations 3
time step continuity errors : sum local = 0.0187972, global = 0.00166993, cumulative = 0.00557375
smoothSolver:  Solving for omega, Initial residual = 0.00841439, Final residual = 0.000436093, No Iterations 3
smoothSolver:  Solving for k, Initial residual = 0.155364, Final residual = 0.00884695, No Iterations 4
ExecutionTime = 0.06 s  ClockTime = 0 s

scalarTransport execute: age
smoothSolver:  Solving for age, Initial residual = 0.306465, Final residual = 0.0286698, No Iterations 9

Time = 4

smoothSolver:  Solving for Ux, Initial residual = 0.098066, Final residual = 0.00915516, No Iterations 4
smoothSolver:  Solving for Uy, Initial residual = 0.0655199, Final residual = 0.0050899, No Iterations 4
GAMG:  Solving for p, Initial residual = 0.0674555, Final residual = 0.00410433, No Iterations 2
time step continuity errors : sum local = 0.0131473, global = 0.00231613, cumulative = 0.00788988
smoothSolver:  Solving for omega, Initial residual = 0.00416127, Final residual = 0.000267777, No Iterations 3
smoothSolver:  Solving for k, Initial residual = 0.104013, Final residual = 0.00759014, No Iterations 4
ExecutionTime = 0.08 s  ClockTime = 0 s

scalarTransport execute: age
smoothSolver:  Solving for age, Initial residual = 0.17485, Final residual = 0.0155912, No Iterations 10

Time = 5

smoothSolver:  Solving for Ux, Initial residual = 0.076829, Final residual = 0.00756044, No Iterations 4
smoothSolver:  Solving for Uy, Initial residual = 0.0524452, Final residual = 0.00427326, No Iterations 4
GAMG:  Solving for p, Initial residual = 0.0573671, Final residual = 0.0048344, No Iterations 2
time step continuity errors : sum local = 0.0151975, global = 0.00196068, cumulative = 0.00985056
smoothSolver:  Solving for omega, Initial residual = 0.0021621, Final residual = 0.000165446, No Iterations 3
smoothSolver:  Solving for k, Initial residual = 0.0781444, Final residual = 0.00649127, No Iterations 4
ExecutionTime = 0.09 s  ClockTime = 0 s

scalarTransport execute: age
smoothSolver:  Solving for age, Initial residual = 0.121698, Final residual = 0.0112706, No Iterations 10

Time = 6

smoothSolver:  Solving for Ux, Initial residual = 0.0659756, Final residual = 0.0065515, No Iterations 4
smoothSolver:  Solving for Uy, Initial residual = 0.0459378, Final residual = 0.0038298, No Iterations 4
GAMG:  Solving for p, Initial residual = 0.0494774, Final residual = 0.00370341, No Iterations 2
time step continuity errors : sum local = 0.0114946, global = 0.00126902, cumulative = 0.0111196
smoothSolver:  Solving for omega, Initial residual = 0.00136667, Final residual = 0.000115799, No Iterations 3
smoothSolver:  Solving for k, Initial residual = 0.0627671, Final residual = 0.00567265, No Iterations 4
ExecutionTime = 0.1 s  ClockTime = 0 s

scalarTransport execute: age
smoothSolver:  Solving for age, Initial residual = 0.0925942, Final residual = 0.00878814, No Iterations 10

Time = 7

smoothSolver:  Solving for Ux, Initial residual = 0.0593651, Final residual = 0.00377942, No Iterations 5
smoothSolver:  Solving for Uy, Initial residual = 0.0421025, Final residual = 0.00376893, No Iterations 4
GAMG:  Solving for p, Initial residual = 0.0471249, Final residual = 0.00386377, No Iterations 2
time step continuity errors : sum local = 0.0121106, global = 0.000978054, cumulative = 0.0120976
smoothSolver:  Solving for omega, Initial residual = 0.000965204, Final residual = 8.20986e-05, No Iterations 3
smoothSolver:  Solving for k, Initial residual = 0.0524499, Final residual = 0.00499474, No Iterations 4
ExecutionTime = 0.11 s  ClockTime = 0 s

scalarTransport execute: age
smoothSolver:  Solving for age, Initial residual = 0.0759216, Final residual = 0.00757515, No Iterations 10

Time = 8

smoothSolver:  Solving for Ux, Initial residual = 0.0549908, Final residual = 0.0035202, No Iterations 5
smoothSolver:  Solving for Uy, Initial residual = 0.0396443, Final residual = 0.00367237, No Iterations 4
GAMG:  Solving for p, Initial residual = 0.0454741, Final residual = 0.00340395, No Iterations 2
time step continuity errors : sum local = 0.0108399, global = 0.000781811, cumulative = 0.0128795
smoothSolver:  Solving for omega, Initial residual = 0.000705483, Final residual = 6.18689e-05, No Iterations 3
smoothSolver:  Solving for k, Initial residual = 0.0452634, Final residual = 0.00445419, No Iterations 4
ExecutionTime = 0.12 s  ClockTime = 0 s

scalarTransport execute: age
smoothSolver:  Solving for age, Initial residual = 0.0686403, Final residual = 0.00605687, No Iterations 11

Time = 9

smoothSolver:  Solving for Ux, Initial residual = 0.0512101, Final residual = 0.00324255, No Iterations 5
smoothSolver:  Solving for Uy, Initial residual = 0.0379847, Final residual = 0.00352285, No Iterations 4
GAMG:  Solving for p, Initial residual = 0.044948, Final residual = 0.00304528, No Iterations 2
time step continuity errors : sum local = 0.00981055, global = 0.000667509, cumulative = 0.013547
smoothSolver:  Solving for omega, Initial residual = 0.000580072, Final residual = 4.81226e-05, No Iterations 3
smoothSolver:  Solving for k, Initial residual = 0.0399611, Final residual = 0.00234617, No Iterations 5
ExecutionTime = 0.14 s  ClockTime = 0 s

scalarTransport execute: age
smoothSolver:  Solving for age, Initial residual = 0.0653876, Final residual = 0.00574921, No Iterations 11

Time = 10

smoothSolver:  Solving for Ux, Initial residual = 0.0484767, Final residual = 0.00297907, No Iterations 5
smoothSolver:  Solving for Uy, Initial residual = 0.0369783, Final residual = 0.00335794, No Iterations 4
GAMG:  Solving for p, Initial residual = 0.0459321, Final residual = 0.00309338, No Iterations 2
time step continuity errors : sum local = 0.0100434, global = 0.000723799, cumulative = 0.0142708
smoothSolver:  Solving for omega, Initial residual = 0.000499742, Final residual = 3.86317e-05, No Iterations 3
smoothSolver:  Solving for k, Initial residual = 0.0359725, Final residual = 0.00212009, No Iterations 5
ExecutionTime = 0.15 s  ClockTime = 0 s

scalarTransport execute: age
smoothSolver:  Solving for age, Initial residual = 0.0618383, Final residual = 0.00529301, No Iterations 11

Time = 11

smoothSolver:  Solving for Ux, Initial residual = 0.0465599, Final residual = 0.00452768, No Iterations 4
smoothSolver:  Solving for Uy, Initial residual = 0.0357951, Final residual = 0.00315288, No Iterations 4
GAMG:  Solving for p, Initial residual = 0.0462291, Final residual = 0.00299772, No Iterations 2
time step continuity errors : sum local = 0.0098133, global = 0.000813328, cumulative = 0.0150841
smoothSolver:  Solving for omega, Initial residual = 0.00047258, Final residual = 3.16685e-05, No Iterations 3
smoothSolver:  Solving for k, Initial residual = 0.0328968, Final residual = 0.0032864, No Iterations 4
ExecutionTime = 0.16 s  ClockTime = 0 s

scalarTransport execute: age
smoothSolver:  Solving for age, Initial residual = 0.0588888, Final residual = 0.00562875, No Iterations 10

Time = 12

smoothSolver:  Solving for Ux, Initial residual = 0.0449498, Final residual = 0.00420996, No Iterations 4
smoothSolver:  Solving for Uy, Initial residual = 0.0339961, Final residual = 0.00291287, No Iterations 4
GAMG:  Solving for p, Initial residual = 0.0466377, Final residual = 0.00325694, No Iterations 2
time step continuity errors : sum local = 0.0106909, global = 0.00103547, cumulative = 0.0161196
smoothSolver:  Solving for omega, Initial residual = 0.000447431, Final residual = 2.63384e-05, No Iterations 3
smoothSolver:  Solving for k, Initial residual = 0.0303642, Final residual = 0.00300187, No Iterations 4
ExecutionTime = 0.17 s  ClockTime = 0 s

scalarTransport execute: age
smoothSolver:  Solving for age, Initial residual = 0.0558359, Final residual = 0.00522595, No Iterations 10

Time = 13

smoothSolver:  Solving for Ux, Initial residual = 0.0135466, Final residual = 0.00106068, No Iterations 4
smoothSolver:  Solving for Uy, Initial residual = 0.0331134, Final residual = 0.00267062, No Iterations 4
GAMG:  Solving for p, Initial residual = 0.0461734, Final residual = 0.00326978, No Iterations 2
time step continuity errors : sum local = 0.0108061, global = 0.00119461, cumulative = 0.0173142
smoothSolver:  Solving for omega, Initial residual = 0.000399055, Final residual = 2.1041e-05, No Iterations 3
smoothSolver:  Solving for k, Initial residual = 0.0282448, Final residual = 0.00274665, No Iterations 4
ExecutionTime = 0.18 s  ClockTime = 0 s

scalarTransport execute: age
smoothSolver:  Solving for age, Initial residual = 0.0519079, Final residual = 0.00497256, No Iterations 10

Time = 14

smoothSolver:  Solving for Ux, Initial residual = 0.0401063, Final residual = 0.00353254, No Iterations 4
smoothSolver:  Solving for Uy, Initial residual = 0.0291254, Final residual = 0.00245044, No Iterations 4
GAMG:  Solving for p, Initial residual = 0.0449758, Final residual = 0.00332914, No Iterations 2
time step continuity errors : sum local = 0.0109909, global = 0.00130211, cumulative = 0.0186163
smoothSolver:  Solving for omega, Initial residual = 0.000381644, Final residual = 1.95358e-05, No Iterations 3
smoothSolver:  Solving for k, Initial residual = 0.0262813, Final residual = 0.0025121, No Iterations 4
ExecutionTime = 0.19 s  ClockTime = 0 s

scalarTransport execute: age
smoothSolver:  Solving for age, Initial residual = 0.0474753, Final residual = 0.00470922, No Iterations 10

Time = 15

smoothSolver:  Solving for Ux, Initial residual = 0.037098, Final residual = 0.00321047, No Iterations 4
smoothSolver:  Solving for Uy, Initial residual = 0.026705, Final residual = 0.00223628, No Iterations 4
GAMG:  Solving for p, Initial residual = 0.0432781, Final residual = 0.00334319, No Iterations 2
time step continuity errors : sum local = 0.0109964, global = 0.00137712, cumulative = 0.0199934
smoothSolver:  Solving for omega, Initial residual = 0.000358035, Final residual = 1.71703e-05, No Iterations 3
smoothSolver:  Solving for k, Initial residual = 0.0244916, Final residual = 0.00229426, No Iterations 4
ExecutionTime = 0.21 s  ClockTime = 0 s

scalarTransport execute: age
smoothSolver:  Solving for age, Initial residual = 0.0432041, Final residual = 0.0039786, No Iterations 11

Time = 16

smoothSolver:  Solving for Ux, Initial residual = 0.0339151, Final residual = 0.00290713, No Iterations 4
smoothSolver:  Solving for Uy, Initial residual = 0.0243737, Final residual = 0.00203786, No Iterations 4
GAMG:  Solving for p, Initial residual = 0.04141, Final residual = 0.00324823, No Iterations 2
time step continuity errors : sum local = 0.010595, global = 0.00136514, cumulative = 0.0213585
smoothSolver:  Solving for omega, Initial residual = 0.000329819, Final residual = 3.25119e-05, No Iterations 2
smoothSolver:  Solving for k, Initial residual = 0.022867, Final residual = 0.00209563, No Iterations 4
ExecutionTime = 0.22 s  ClockTime = 0 s

scalarTransport execute: age
smoothSolver:  Solving for age, Initial residual = 0.039284, Final residual = 0.00384634, No Iterations 11

Time = 17

smoothSolver:  Solving for Ux, Initial residual = 0.0310901, Final residual = 0.00264681, No Iterations 4
smoothSolver:  Solving for Uy, Initial residual = 0.022238, Final residual = 0.00185397, No Iterations 4
GAMG:  Solving for p, Initial residual = 0.0396514, Final residual = 0.00306633, No Iterations 2
time step continuity errors : sum local = 0.00986749, global = 0.00128375, cumulative = 0.0226423
smoothSolver:  Solving for omega, Initial residual = 0.000333073, Final residual = 3.04428e-05, No Iterations 2
smoothSolver:  Solving for k, Initial residual = 0.0213121, Final residual = 0.0019098, No Iterations 4
ExecutionTime = 0.23 s  ClockTime = 0 s

scalarTransport execute: age
smoothSolver:  Solving for age, Initial residual = 0.0360811, Final residual = 0.00326014, No Iterations 12

Time = 18

smoothSolver:  Solving for Ux, Initial residual = 0.0287108, Final residual = 0.00243456, No Iterations 4
smoothSolver:  Solving for Uy, Initial residual = 0.0203262, Final residual = 0.0016881, No Iterations 4
GAMG:  Solving for p, Initial residual = 0.0374583, Final residual = 0.00288734, No Iterations 2
time step continuity errors : sum local = 0.00914422, global = 0.00120472, cumulative = 0.023847
smoothSolver:  Solving for omega, Initial residual = 0.000292364, Final residual = 2.77367e-05, No Iterations 2
smoothSolver:  Solving for k, Initial residual = 0.0197521, Final residual = 0.00173515, No Iterations 4
ExecutionTime = 0.24 s  ClockTime = 0 s

scalarTransport execute: age
smoothSolver:  Solving for age, Initial residual = 0.033729, Final residual = 0.00328572, No Iterations 12

Time = 19

smoothSolver:  Solving for Ux, Initial residual = 0.0265709, Final residual = 0.00226057, No Iterations 4
smoothSolver:  Solving for Uy, Initial residual = 0.0185449, Final residual = 0.00154151, No Iterations 4
GAMG:  Solving for p, Initial residual = 0.034976, Final residual = 0.00256604, No Iterations 2
time step continuity errors : sum local = 0.00801047, global = 0.00110803, cumulative = 0.024955
smoothSolver:  Solving for omega, Initial residual = 0.000267538, Final residual = 2.53614e-05, No Iterations 2
smoothSolver:  Solving for k, Initial residual = 0.018177, Final residual = 0.00157292, No Iterations 4
ExecutionTime = 0.25 s  ClockTime = 0 s

scalarTransport execute: age
smoothSolver:  Solving for age, Initial residual = 0.0318321, Final residual = 0.0029552, No Iterations 13

Time = 20

smoothSolver:  Solving for Ux, Initial residual = 0.0248064, Final residual = 0.00213003, No Iterations 4
smoothSolver:  Solving for Uy, Initial residual = 0.0169412, Final residual = 0.00141199, No Iterations 4
GAMG:  Solving for p, Initial residual = 0.0322741, Final residual = 0.00214207, No Iterations 2
time step continuity errors : sum local = 0.00658597, global = 0.000934436, cumulative = 0.0258895
smoothSolver:  Solving for omega, Initial residual = 0.000255476, Final residual = 2.32803e-05, No Iterations 2
smoothSolver:  Solving for k, Initial residual = 0.0166097, Final residual = 0.00142392, No Iterations 4
ExecutionTime = 0.27 s  ClockTime = 1 s

scalarTransport execute: age
smoothSolver:  Solving for age, Initial residual = 0.0304534, Final residual = 0.00292783, No Iterations 13

Time = 21

smoothSolver:  Solving for Ux, Initial residual = 0.0232438, Final residual = 0.00202545, No Iterations 4
smoothSolver:  Solving for Uy, Initial residual = 0.0155439, Final residual = 0.00130052, No Iterations 4
GAMG:  Solving for p, Initial residual = 0.029349, Final residual = 0.00198676, No Iterations 2
time step continuity errors : sum local = 0.00600784, global = 0.000738366, cumulative = 0.0266278
smoothSolver:  Solving for omega, Initial residual = 0.000224499, Final residual = 2.14071e-05, No Iterations 2
smoothSolver:  Solving for k, Initial residual = 0.0150871, Final residual = 0.00128963, No Iterations 4
ExecutionTime = 0.28 s  ClockTime = 1 s

scalarTransport execute: age
smoothSolver:  Solving for age, Initial residual = 0.0287904, Final residual = 0.00280412, No Iterations 13

Time = 22

smoothSolver:  Solving for Ux, Initial residual = 0.0176765, Final residual = 0.00158176, No Iterations 4
smoothSolver:  Solving for Uy, Initial residual = 0.0147612, Final residual = 0.00120136, No Iterations 4
GAMG:  Solving for p, Initial residual = 0.0267273, Final residual = 0.00194423, No Iterations 2
time step continuity errors : sum local = 0.00580385, global = 0.000571808, cumulative = 0.0271996
smoothSolver:  Solving for omega, Initial residual = 0.000197926, Final residual = 8.9554e-06, No Iterations 3
smoothSolver:  Solving for k, Initial residual = 0.0136796, Final residual = 0.00117057, No Iterations 4
ExecutionTime = 0.29 s  ClockTime = 1 s

scalarTransport execute: age
smoothSolver:  Solving for age, Initial residual = 0.026912, Final residual = 0.00265165, No Iterations 13

Time = 23

smoothSolver:  Solving for Ux, Initial residual = 0.0206688, Final residual = 0.00191688, No Iterations 4
smoothSolver:  Solving for Uy, Initial residual = 0.0129209, Final residual = 0.00111008, No Iterations 4
GAMG:  Solving for p, Initial residual = 0.0241707, Final residual = 0.0018926, No Iterations 2
time step continuity errors : sum local = 0.00558912, global = 0.000420494, cumulative = 0.0276201
smoothSolver:  Solving for omega, Initial residual = 0.000173332, Final residual = 8.25372e-06, No Iterations 3
smoothSolver:  Solving for k, Initial residual = 0.012472, Final residual = 0.00107075, No Iterations 4
ExecutionTime = 0.3 s  ClockTime = 1 s

scalarTransport execute: age
smoothSolver:  Solving for age, Initial residual = 0.0248422, Final residual = 0.00238762, No Iterations 13

Time = 24

smoothSolver:  Solving for Ux, Initial residual = 0.0190557, Final residual = 0.00181867, No Iterations 4
smoothSolver:  Solving for Uy, Initial residual = 0.0118746, Final residual = 0.00103791, No Iterations 4
GAMG:  Solving for p, Initial residual = 0.0218498, Final residual = 0.00179265, No Iterations 2
time step continuity errors : sum local = 0.00524316, global = 0.000277102, cumulative = 0.0278972
smoothSolver:  Solving for omega, Initial residual = 0.000155389, Final residual = 7.85403e-06, No Iterations 3
smoothSolver:  Solving for k, Initial residual = 0.0114826, Final residual = 0.000989144, No Iterations 4
ExecutionTime = 0.31 s  ClockTime = 1 s

scalarTransport execute: age
smoothSolver:  Solving for age, Initial residual = 0.0227324, Final residual = 0.00210552, No Iterations 13

Time = 25

smoothSolver:  Solving for Ux, Initial residual = 0.0187606, Final residual = 0.00184117, No Iterations 4
smoothSolver:  Solving for Uy, Initial residual = 0.0108235, Final residual = 0.000988459, No Iterations 4
GAMG:  Solving for p, Initial residual = 0.0198469, Final residual = 0.00168434, No Iterations 2
time step continuity errors : sum local = 0.00488645, global = 0.000167986, cumulative = 0.0280652
smoothSolver:  Solving for omega, Initial residual = 0.000142234, Final residual = 7.66854e-06, No Iterations 3
smoothSolver:  Solving for k, Initial residual = 0.010668, Final residual = 0.000917925, No Iterations 4
ExecutionTime = 0.33 s  ClockTime = 1 s

scalarTransport execute: age
smoothSolver:  Solving for age, Initial residual = 0.0206391, Final residual = 0.0018377, No Iterations 13

Time = 26

smoothSolver:  Solving for Ux, Initial residual = 0.0179166, Final residual = 0.00107804, No Iterations 5
smoothSolver:  Solving for Uy, Initial residual = 0.0100528, Final residual = 0.000955774, No Iterations 4
GAMG:  Solving for p, Initial residual = 0.0186719, Final residual = 0.00166705, No Iterations 2
time step continuity errors : sum local = 0.00480607, global = 8.24503e-05, cumulative = 0.0281477
smoothSolver:  Solving for omega, Initial residual = 0.000138044, Final residual = 7.63599e-06, No Iterations 3
smoothSolver:  Solving for k, Initial residual = 0.00996959, Final residual = 0.000853392, No Iterations 4
ExecutionTime = 0.34 s  ClockTime = 1 s

scalarTransport execute: age
smoothSolver:  Solving for age, Initial residual = 0.0190786, Final residual = 0.00186392, No Iterations 12

Time = 27

smoothSolver:  Solving for Ux, Initial residual = 0.0169963, Final residual = 0.00103825, No Iterations 5
smoothSolver:  Solving for Uy, Initial residual = 0.00959558, Final residual = 0.000948542, No Iterations 4
GAMG:  Solving for p, Initial residual = 0.0172579, Final residual = 0.00158963, No Iterations 2
time step continuity errors : sum local = 0.00455673, global = 2.11393e-05, cumulative = 0.0281688
smoothSolver:  Solving for omega, Initial residual = 0.000132827, Final residual = 7.60297e-06, No Iterations 3
smoothSolver:  Solving for k, Initial residual = 0.00938222, Final residual = 0.000798603, No Iterations 4
ExecutionTime = 0.35 s  ClockTime = 1 s

scalarTransport execute: age
smoothSolver:  Solving for age, Initial residual = 0.0179368, Final residual = 0.00165876, No Iterations 12

Time = 28

smoothSolver:  Solving for Ux, Initial residual = 0.0162761, Final residual = 0.00100667, No Iterations 5
smoothSolver:  Solving for Uy, Initial residual = 0.00931923, Final residual = 0.000574446, No Iterations 5
GAMG:  Solving for p, Initial residual = 0.0163729, Final residual = 0.00152226, No Iterations 2
time step continuity errors : sum local = 0.0043412, global = -1.88579e-05, cumulative = 0.02815
smoothSolver:  Solving for omega, Initial residual = 0.00013236, Final residual = 7.63392e-06, No Iterations 3
smoothSolver:  Solving for k, Initial residual = 0.00891421, Final residual = 0.000754291, No Iterations 4
ExecutionTime = 0.36 s  ClockTime = 1 s

scalarTransport execute: age
smoothSolver:  Solving for age, Initial residual = 0.0171625, Final residual = 0.00151507, No Iterations 12

Time = 29

smoothSolver:  Solving for Ux, Initial residual = 0.0158492, Final residual = 0.00099215, No Iterations 5
smoothSolver:  Solving for Uy, Initial residual = 0.00908419, Final residual = 0.000567122, No Iterations 5
GAMG:  Solving for p, Initial residual = 0.0156568, Final residual = 0.00151627, No Iterations 2
time step continuity errors : sum local = 0.00430261, global = -2.77696e-05, cumulative = 0.0281222
smoothSolver:  Solving for omega, Initial residual = 0.000133184, Final residual = 7.69117e-06, No Iterations 3
smoothSolver:  Solving for k, Initial residual = 0.00856654, Final residual = 0.000717987, No Iterations 4
ExecutionTime = 0.38 s  ClockTime = 1 s

scalarTransport execute: age
smoothSolver:  Solving for age, Initial residual = 0.0167422, Final residual = 0.00162834, No Iterations 11

Time = 30

smoothSolver:  Solving for Ux, Initial residual = 0.0155039, Final residual = 0.000978056, No Iterations 5
smoothSolver:  Solving for Uy, Initial residual = 0.00899405, Final residual = 0.000568964, No Iterations 5
GAMG:  Solving for p, Initial residual = 0.0152681, Final residual = 0.000747868, No Iterations 3
time step continuity errors : sum local = 0.00211174, global = 2.9997e-05, cumulative = 0.0281522
smoothSolver:  Solving for omega, Initial residual = 0.000141851, Final residual = 7.80804e-06, No Iterations 3
smoothSolver:  Solving for k, Initial residual = 0.00836978, Final residual = 0.00069474, No Iterations 4
ExecutionTime = 0.39 s  ClockTime = 1 s

scalarTransport execute: age
smoothSolver:  Solving for age, Initial residual = 0.0169868, Final residual = 0.00156607, No Iterations 11

Time = 31

smoothSolver:  Solving for Ux, Initial residual = 0.0151187, Final residual = 0.000947097, No Iterations 5
smoothSolver:  Solving for Uy, Initial residual = 0.0092584, Final residual = 0.000592219, No Iterations 5
GAMG:  Solving for p, Initial residual = 0.0148233, Final residual = 0.00133811, No Iterations 2
time step continuity errors : sum local = 0.003758, global = 6.92322e-05, cumulative = 0.0282214
smoothSolver:  Solving for omega, Initial residual = 0.000147135, Final residual = 7.87087e-06, No Iterations 3
smoothSolver:  Solving for k, Initial residual = 0.00811159, Final residual = 0.00067378, No Iterations 4
ExecutionTime = 0.4 s  ClockTime = 1 s

scalarTransport execute: age
smoothSolver:  Solving for age, Initial residual = 0.0175584, Final residual = 0.00158489, No Iterations 11

Time = 32

smoothSolver:  Solving for Ux, Initial residual = 0.0151439, Final residual = 0.000976237, No Iterations 5
smoothSolver:  Solving for Uy, Initial residual = 0.00915481, Final residual = 0.000587873, No Iterations 5
GAMG:  Solving for p, Initial residual = 0.0156275, Final residual = 0.000824202, No Iterations 3
time step continuity errors : sum local = 0.00230162, global = 8.86514e-05, cumulative = 0.0283101
smoothSolver:  Solving for omega, Initial residual = 0.000150575, Final residual = 8.1529e-06, No Iterations 3
smoothSolver:  Solving for k, Initial residual = 0.00794037, Final residual = 0.000663748, No Iterations 4
ExecutionTime = 0.41 s  ClockTime = 1 s

scalarTransport execute: age
smoothSolver:  Solving for age, Initial residual = 0.0181853, Final residual = 0.00161639, No Iterations 11

Time = 33

smoothSolver:  Solving for Ux, Initial residual = 0.0146719, Final residual = 0.000939486, No Iterations 5
smoothSolver:  Solving for Uy, Initial residual = 0.00952698, Final residual = 0.000612798, No Iterations 5
GAMG:  Solving for p, Initial residual = 0.0147868, Final residual = 0.00143854, No Iterations 2
time step continuity errors : sum local = 0.00398937, global = 0.000126189, cumulative = 0.0284363
smoothSolver:  Solving for omega, Initial residual = 0.000157656, Final residual = 8.30908e-06, No Iterations 3
smoothSolver:  Solving for k, Initial residual = 0.00778163, Final residual = 0.000656213, No Iterations 4
ExecutionTime = 0.42 s  ClockTime = 1 s

scalarTransport execute: age
smoothSolver:  Solving for age, Initial residual = 0.0190589, Final residual = 0.00168735, No Iterations 11

Time = 34

smoothSolver:  Solving for Ux, Initial residual = 0.0146824, Final residual = 0.000967579, No Iterations 5
smoothSolver:  Solving for Uy, Initial residual = 0.00946631, Final residual = 0.000610754, No Iterations 5
GAMG:  Solving for p, Initial residual = 0.0159279, Final residual = 0.000862049, No Iterations 3
time step continuity errors : sum local = 0.00237904, global = 0.000140774, cumulative = 0.028577
smoothSolver:  Solving for omega, Initial residual = 0.000162179, Final residual = 8.73833e-06, No Iterations 3
smoothSolver:  Solving for k, Initial residual = 0.00766026, Final residual = 0.000649795, No Iterations 4
ExecutionTime = 0.44 s  ClockTime = 1 s

scalarTransport execute: age
smoothSolver:  Solving for age, Initial residual = 0.0195919, Final residual = 0.00170439, No Iterations 11

Time = 35

smoothSolver:  Solving for Ux, Initial residual = 0.014138, Final residual = 0.000922646, No Iterations 5
smoothSolver:  Solving for Uy, Initial residual = 0.00977994, Final residual = 0.000626328, No Iterations 5
GAMG:  Solving for p, Initial residual = 0.0153314, Final residual = 0.000664006, No Iterations 3
time step continuity errors : sum local = 0.00182154, global = 0.000149377, cumulative = 0.0287264
smoothSolver:  Solving for omega, Initial residual = 0.000162261, Final residual = 9.00771e-06, No Iterations 3
smoothSolver:  Solving for k, Initial residual = 0.00749223, Final residual = 0.000637654, No Iterations 4
ExecutionTime = 0.45 s  ClockTime = 1 s

scalarTransport execute: age
smoothSolver:  Solving for age, Initial residual = 0.0202208, Final residual = 0.00201086, No Iterations 10

Time = 36

smoothSolver:  Solving for Ux, Initial residual = 0.0139123, Final residual = 0.000923995, No Iterations 5
smoothSolver:  Solving for Uy, Initial residual = 0.00981397, Final residual = 0.000628935, No Iterations 5
GAMG:  Solving for p, Initial residual = 0.0157852, Final residual = 0.000649301, No Iterations 3
time step continuity errors : sum local = 0.00177178, global = 0.000155773, cumulative = 0.0288822
smoothSolver:  Solving for omega, Initial residual = 0.000165188, Final residual = 9.3383e-06, No Iterations 3
smoothSolver:  Solving for k, Initial residual = 0.00727406, Final residual = 0.000617408, No Iterations 4
ExecutionTime = 0.46 s  ClockTime = 1 s

scalarTransport execute: age
smoothSolver:  Solving for age, Initial residual = 0.0205754, Final residual = 0.00203545, No Iterations 10

Time = 37

smoothSolver:  Solving for Ux, Initial residual = 0.0136642, Final residual = 0.000918985, No Iterations 5
smoothSolver:  Solving for Uy, Initial residual = 0.00977815, Final residual = 0.000621968, No Iterations 5
GAMG:  Solving for p, Initial residual = 0.0161134, Final residual = 0.000662684, No Iterations 3
time step continuity errors : sum local = 0.00180164, global = 0.000162865, cumulative = 0.029045
smoothSolver:  Solving for omega, Initial residual = 0.000170557, Final residual = 9.66922e-06, No Iterations 3
smoothSolver:  Solving for k, Initial residual = 0.00701307, Final residual = 0.000589099, No Iterations 4
ExecutionTime = 0.47 s  ClockTime = 1 s

scalarTransport execute: age
smoothSolver:  Solving for age, Initial residual = 0.0207357, Final residual = 0.00203427, No Iterations 10

Time = 38

smoothSolver:  Solving for Ux, Initial residual = 0.0132555, Final residual = 0.000896064, No Iterations 5
smoothSolver:  Solving for Uy, Initial residual = 0.00968304, Final residual = 0.000610269, No Iterations 5
GAMG:  Solving for p, Initial residual = 0.0162114, Final residual = 0.000651797, No Iterations 3
time step continuity errors : sum local = 0.00176821, global = 0.000172133, cumulative = 0.0292172
smoothSolver:  Solving for omega, Initial residual = 0.00016634, Final residual = 9.81814e-06, No Iterations 3
smoothSolver:  Solving for k, Initial residual = 0.00668925, Final residual = 0.000555265, No Iterations 4
ExecutionTime = 0.49 s  ClockTime = 1 s

scalarTransport execute: age
smoothSolver:  Solving for age, Initial residual = 0.0207549, Final residual = 0.00205003, No Iterations 10

Time = 39

smoothSolver:  Solving for Ux, Initial residual = 0.0127054, Final residual = 0.000859462, No Iterations 5
smoothSolver:  Solving for Uy, Initial residual = 0.00951222, Final residual = 0.000593435, No Iterations 5
GAMG:  Solving for p, Initial residual = 0.016127, Final residual = 0.000626479, No Iterations 3
time step continuity errors : sum local = 0.00169764, global = 0.000184507, cumulative = 0.0294017
smoothSolver:  Solving for omega, Initial residual = 0.000170024, Final residual = 9.93822e-06, No Iterations 3
smoothSolver:  Solving for k, Initial residual = 0.00631765, Final residual = 0.000518384, No Iterations 4
ExecutionTime = 0.5 s  ClockTime = 1 s

scalarTransport execute: age
smoothSolver:  Solving for age, Initial residual = 0.0205613, Final residual = 0.00178132, No Iterations 11

Time = 40

smoothSolver:  Solving for Ux, Initial residual = 0.0122256, Final residual = 0.000829624, No Iterations 5
smoothSolver:  Solving for Uy, Initial residual = 0.00920701, Final residual = 0.000571334, No Iterations 5
GAMG:  Solving for p, Initial residual = 0.0158647, Final residual = 0.000595831, No Iterations 3
time step continuity errors : sum local = 0.00161374, global = 0.000199828, cumulative = 0.0296015
smoothSolver:  Solving for omega, Initial residual = 0.000173621, Final residual = 9.92977e-06, No Iterations 3
smoothSolver:  Solving for k, Initial residual = 0.00591056, Final residual = 0.000480099, No Iterations 4
ExecutionTime = 0.51 s  ClockTime = 1 s

scalarTransport execute: age
smoothSolver:  Solving for age, Initial residual = 0.0200937, Final residual = 0.0017736, No Iterations 11

Time = 41

smoothSolver:  Solving for Ux, Initial residual = 0.0114324, Final residual = 0.000768913, No Iterations 5
smoothSolver:  Solving for Uy, Initial residual = 0.00885498, Final residual = 0.000543911, No Iterations 5
GAMG:  Solving for p, Initial residual = 0.0153935, Final residual = 0.000565358, No Iterations 3
time step continuity errors : sum local = 0.00153041, global = 0.000207006, cumulative = 0.0298085
smoothSolver:  Solving for omega, Initial residual = 0.000161137, Final residual = 9.66173e-06, No Iterations 3
smoothSolver:  Solving for k, Initial residual = 0.00549976, Final residual = 0.000442293, No Iterations 4
ExecutionTime = 0.52 s  ClockTime = 1 s

scalarTransport execute: age
smoothSolver:  Solving for age, Initial residual = 0.0193769, Final residual = 0.00174527, No Iterations 11

Time = 42

smoothSolver:  Solving for Ux, Initial residual = 0.0111238, Final residual = 0.000749865, No Iterations 5
smoothSolver:  Solving for Uy, Initial residual = 0.00830861, Final residual = 0.000511111, No Iterations 5
GAMG:  Solving for p, Initial residual = 0.0147864, Final residual = 0.000548551, No Iterations 3
time step continuity errors : sum local = 0.00148253, global = 0.000198509, cumulative = 0.030007
smoothSolver:  Solving for omega, Initial residual = 0.000149036, Final residual = 9.20769e-06, No Iterations 3
smoothSolver:  Solving for k, Initial residual = 0.00512412, Final residual = 0.000406392, No Iterations 4
ExecutionTime = 0.54 s  ClockTime = 1 s

scalarTransport execute: age
smoothSolver:  Solving for age, Initial residual = 0.0184969, Final residual = 0.00169848, No Iterations 11

Time = 43

smoothSolver:  Solving for Ux, Initial residual = 0.0107596, Final residual = 0.000725664, No Iterations 5
smoothSolver:  Solving for Uy, Initial residual = 0.00768878, Final residual = 0.000472764, No Iterations 5
GAMG:  Solving for p, Initial residual = 0.0142066, Final residual = 0.000527902, No Iterations 3
time step continuity errors : sum local = 0.00142232, global = 0.000181861, cumulative = 0.0301889
smoothSolver:  Solving for omega, Initial residual = 0.000143603, Final residual = 8.75209e-06, No Iterations 3
smoothSolver:  Solving for k, Initial residual = 0.00475295, Final residual = 0.000373576, No Iterations 4
ExecutionTime = 0.55 s  ClockTime = 1 s

scalarTransport execute: age
smoothSolver:  Solving for age, Initial residual = 0.0175627, Final residual = 0.00163857, No Iterations 11

Time = 44

smoothSolver:  Solving for Ux, Initial residual = 0.0103513, Final residual = 0.000699016, No Iterations 5
smoothSolver:  Solving for Uy, Initial residual = 0.00703595, Final residual = 0.000429632, No Iterations 5
GAMG:  Solving for p, Initial residual = 0.0136283, Final residual = 0.00135013, No Iterations 2
time step continuity errors : sum local = 0.00362424, global = 0.000225484, cumulative = 0.0304144
smoothSolver:  Solving for omega, Initial residual = 0.000129641, Final residual = 8.10126e-06, No Iterations 3
smoothSolver:  Solving for k, Initial residual = 0.00439248, Final residual = 0.00034551, No Iterations 4
ExecutionTime = 0.56 s  ClockTime = 1 s

scalarTransport execute: age
smoothSolver:  Solving for age, Initial residual = 0.0169447, Final residual = 0.00161451, No Iterations 11

Time = 45

smoothSolver:  Solving for Ux, Initial residual = 0.00992308, Final residual = 0.000687282, No Iterations 5
smoothSolver:  Solving for Uy, Initial residual = 0.00636722, Final residual = 0.000389661, No Iterations 5
GAMG:  Solving for p, Initial residual = 0.013593, Final residual = 0.00071873, No Iterations 3
time step continuity errors : sum local = 0.00193082, global = 0.000186399, cumulative = 0.0306008
smoothSolver:  Solving for omega, Initial residual = 0.000127444, Final residual = 7.31725e-06, No Iterations 3
smoothSolver:  Solving for k, Initial residual = 0.00405901, Final residual = 0.000319916, No Iterations 4
ExecutionTime = 0.57 s  ClockTime = 1 s

scalarTransport execute: age
smoothSolver:  Solving for age, Initial residual = 0.0157687, Final residual = 0.00150348, No Iterations 11

Time = 46

smoothSolver:  Solving for Ux, Initial residual = 0.00942108, Final residual = 0.000640085, No Iterations 5
smoothSolver:  Solving for Uy, Initial residual = 0.00592264, Final residual = 0.000559948, No Iterations 4
GAMG:  Solving for p, Initial residual = 0.0124863, Final residual = 0.00103296, No Iterations 2
time step continuity errors : sum local = 0.00274551, global = 0.000170292, cumulative = 0.0307711
smoothSolver:  Solving for omega, Initial residual = 0.000115097, Final residual = 6.58952e-06, No Iterations 3
smoothSolver:  Solving for k, Initial residual = 0.00378641, Final residual = 0.000301664, No Iterations 4
ExecutionTime = 0.59 s  ClockTime = 1 s

scalarTransport execute: age
smoothSolver:  Solving for age, Initial residual = 0.0152897, Final residual = 0.00146395, No Iterations 11

Time = 47

smoothSolver:  Solving for Ux, Initial residual = 0.00891346, Final residual = 0.00062375, No Iterations 5
smoothSolver:  Solving for Uy, Initial residual = 0.00534784, Final residual = 0.000529406, No Iterations 4
GAMG:  Solving for p, Initial residual = 0.0122124, Final residual = 0.00115309, No Iterations 2
time step continuity errors : sum local = 0.00305995, global = 0.000227384, cumulative = 0.0309984
smoothSolver:  Solving for omega, Initial residual = 0.000103913, Final residual = 6.02454e-06, No Iterations 3
smoothSolver:  Solving for k, Initial residual = 0.00360213, Final residual = 0.000287733, No Iterations 4
ExecutionTime = 0.6 s  ClockTime = 1 s

scalarTransport execute: age
smoothSolver:  Solving for age, Initial residual = 0.0148368, Final residual = 0.00141915, No Iterations 11

Time = 48

smoothSolver:  Solving for Ux, Initial residual = 0.00840415, Final residual = 0.000594952, No Iterations 5
smoothSolver:  Solving for Uy, Initial residual = 0.00510718, Final residual = 0.000507901, No Iterations 4
GAMG:  Solving for p, Initial residual = 0.0116504, Final residual = 0.000991569, No Iterations 2
time step continuity errors : sum local = 0.00262239, global = 0.000256648, cumulative = 0.0312551
smoothSolver:  Solving for omega, Initial residual = 9.70255e-05, Final residual = 5.52009e-06, No Iterations 3
smoothSolver:  Solving for k, Initial residual = 0.00347124, Final residual = 0.000276423, No Iterations 4
ExecutionTime = 0.61 s  ClockTime = 1 s

scalarTransport execute: age
smoothSolver:  Solving for age, Initial residual = 0.0141846, Final residual = 0.00134807, No Iterations 11

Time = 49

smoothSolver:  Solving for Ux, Initial residual = 0.00792031, Final residual = 0.000569993, No Iterations 5
smoothSolver:  Solving for Uy, Initial residual = 0.00484328, Final residual = 0.000294294, No Iterations 5
GAMG:  Solving for p, Initial residual = 0.0112212, Final residual = 0.000814376, No Iterations 2
time step continuity errors : sum local = 0.00213652, global = 0.000218604, cumulative = 0.0314737
smoothSolver:  Solving for omega, Initial residual = 9.36805e-05, Final residual = 5.10583e-06, No Iterations 3
smoothSolver:  Solving for k, Initial residual = 0.0033322, Final residual = 0.000265764, No Iterations 4
ExecutionTime = 0.62 s  ClockTime = 1 s

scalarTransport execute: age
smoothSolver:  Solving for age, Initial residual = 0.0134428, Final residual = 0.00127057, No Iterations 11

Time = 50

smoothSolver:  Solving for Ux, Initial residual = 0.00745191, Final residual = 0.00054748, No Iterations 5
smoothSolver:  Solving for Uy, Initial residual = 0.004528, Final residual = 0.000273213, No Iterations 5
GAMG:  Solving for p, Initial residual = 0.0110778, Final residual = 0.000839706, No Iterations 2
time step continuity errors : sum local = 0.0021802, global = 0.000178295, cumulative = 0.031652
smoothSolver:  Solving for omega, Initial residual = 8.29679e-05, Final residual = 4.81796e-06, No Iterations 3
smoothSolver:  Solving for k, Initial residual = 0.00319457, Final residual = 0.000254604, No Iterations 4
ExecutionTime = 0.63 s  ClockTime = 1 s

scalarTransport execute: age
smoothSolver:  Solving for age, Initial residual = 0.0129699, Final residual = 0.00122974, No Iterations 11

Time = 51

smoothSolver:  Solving for Ux, Initial residual = 0.0056375, Final residual = 0.000359887, No Iterations 5
smoothSolver:  Solving for Uy, Initial residual = 0.00487086, Final residual = 0.000431692, No Iterations 4
GAMG:  Solving for p, Initial residual = 0.0111208, Final residual = 0.00102059, No Iterations 2
time step continuity errors : sum local = 0.00263083, global = 0.000154404, cumulative = 0.0318064
smoothSolver:  Solving for omega, Initial residual = 8.31902e-05, Final residual = 4.49977e-06, No Iterations 3
smoothSolver:  Solving for k, Initial residual = 0.00304923, Final residual = 0.000241921, No Iterations 4
ExecutionTime = 0.65 s  ClockTime = 1 s

scalarTransport execute: age
smoothSolver:  Solving for age, Initial residual = 0.0126181, Final residual = 0.00122351, No Iterations 11

Time = 52

smoothSolver:  Solving for Ux, Initial residual = 0.00660771, Final residual = 0.000492571, No Iterations 5
smoothSolver:  Solving for Uy, Initial residual = 0.00410878, Final residual = 0.000254169, No Iterations 5
GAMG:  Solving for p, Initial residual = 0.0111441, Final residual = 0.00104228, No Iterations 2
time step continuity errors : sum local = 0.00267085, global = 0.000133278, cumulative = 0.0319397
smoothSolver:  Solving for omega, Initial residual = 8.57286e-05, Final residual = 4.43423e-06, No Iterations 3
smoothSolver:  Solving for k, Initial residual = 0.00293075, Final residual = 0.000228388, No Iterations 4
ExecutionTime = 0.66 s  ClockTime = 1 s

scalarTransport execute: age
smoothSolver:  Solving for age, Initial residual = 0.0123007, Final residual = 0.0012255, No Iterations 11

Time = 53

smoothSolver:  Solving for Ux, Initial residual = 0.00626498, Final residual = 0.000459813, No Iterations 5
smoothSolver:  Solving for Uy, Initial residual = 0.00398398, Final residual = 0.000243429, No Iterations 5
GAMG:  Solving for p, Initial residual = 0.0107838, Final residual = 0.0010094, No Iterations 2
time step continuity errors : sum local = 0.00257142, global = 9.50286e-05, cumulative = 0.0320347
smoothSolver:  Solving for omega, Initial residual = 7.63993e-05, Final residual = 4.18427e-06, No Iterations 3
smoothSolver:  Solving for k, Initial residual = 0.00283526, Final residual = 0.000214498, No Iterations 4
ExecutionTime = 0.67 s  ClockTime = 1 s

scalarTransport execute: age
smoothSolver:  Solving for age, Initial residual = 0.0119313, Final residual = 0.00107428, No Iterations 12

Time = 54

smoothSolver:  Solving for Ux, Initial residual = 0.00611036, Final residual = 0.000442282, No Iterations 5
smoothSolver:  Solving for Uy, Initial residual = 0.00384172, Final residual = 0.000231195, No Iterations 5
GAMG:  Solving for p, Initial residual = 0.0103552, Final residual = 0.000995116, No Iterations 2
time step continuity errors : sum local = 0.00252191, global = 2.9172e-05, cumulative = 0.0320639
smoothSolver:  Solving for omega, Initial residual = 7.36514e-05, Final residual = 3.96221e-06, No Iterations 3
smoothSolver:  Solving for k, Initial residual = 0.00273585, Final residual = 0.000201351, No Iterations 4
ExecutionTime = 0.68 s  ClockTime = 1 s

scalarTransport execute: age
smoothSolver:  Solving for age, Initial residual = 0.0115369, Final residual = 0.00110304, No Iterations 12

Time = 55

smoothSolver:  Solving for Ux, Initial residual = 0.00587445, Final residual = 0.000412913, No Iterations 5
smoothSolver:  Solving for Uy, Initial residual = 0.00372265, Final residual = 0.000363075, No Iterations 4
GAMG:  Solving for p, Initial residual = 0.0097862, Final residual = 0.000396648, No Iterations 3
time step continuity errors : sum local = 0.00100118, global = -2.11754e-05, cumulative = 0.0320427
smoothSolver:  Solving for omega, Initial residual = 7.29303e-05, Final residual = 3.67785e-06, No Iterations 3
smoothSolver:  Solving for k, Initial residual = 0.00261891, Final residual = 0.00018802, No Iterations 4
ExecutionTime = 0.7 s  ClockTime = 1 s

scalarTransport execute: age
smoothSolver:  Solving for age, Initial residual = 0.0112578, Final residual = 0.0011025, No Iterations 12

Time = 56

smoothSolver:  Solving for Ux, Initial residual = 0.00571587, Final residual = 0.000384306, No Iterations 5
smoothSolver:  Solving for Uy, Initial residual = 0.00361567, Final residual = 0.000337534, No Iterations 4
GAMG:  Solving for p, Initial residual = 0.0089767, Final residual = 0.000853416, No Iterations 2
time step continuity errors : sum local = 0.0021499, global = -9.74707e-05, cumulative = 0.0319452
smoothSolver:  Solving for omega, Initial residual = 7.86026e-05, Final residual = 6.96887e-06, No Iterations 2
smoothSolver:  Solving for k, Initial residual = 0.00246534, Final residual = 0.0001743, No Iterations 4
ExecutionTime = 0.71 s  ClockTime = 1 s

scalarTransport execute: age
smoothSolver:  Solving for age, Initial residual = 0.0108616, Final residual = 0.00108546, No Iterations 12

Time = 57

smoothSolver:  Solving for Ux, Initial residual = 0.00535159, Final residual = 0.00035828, No Iterations 5
smoothSolver:  Solving for Uy, Initial residual = 0.0034068, Final residual = 0.000310763, No Iterations 4
GAMG:  Solving for p, Initial residual = 0.00886836, Final residual = 0.00088461, No Iterations 2
time step continuity errors : sum local = 0.00222894, global = -0.000192104, cumulative = 0.0317531
smoothSolver:  Solving for omega, Initial residual = 6.81891e-05, Final residual = 3.30199e-06, No Iterations 3
smoothSolver:  Solving for k, Initial residual = 0.00233268, Final residual = 0.000160992, No Iterations 4
ExecutionTime = 0.72 s  ClockTime = 1 s

scalarTransport execute: age
smoothSolver:  Solving for age, Initial residual = 0.010365, Final residual = 0.000912009, No Iterations 13

Time = 58

smoothSolver:  Solving for Ux, Initial residual = 0.00500854, Final residual = 0.000323509, No Iterations 5
smoothSolver:  Solving for Uy, Initial residual = 0.00319438, Final residual = 0.000283307, No Iterations 4
GAMG:  Solving for p, Initial residual = 0.00805398, Final residual = 0.000676192, No Iterations 2
time step continuity errors : sum local = 0.00170817, global = -0.000203511, cumulative = 0.0315496
smoothSolver:  Solving for omega, Initial residual = 5.51297e-05, Final residual = 2.9341e-06, No Iterations 3
smoothSolver:  Solving for k, Initial residual = 0.00215862, Final residual = 0.000149632, No Iterations 4
ExecutionTime = 0.73 s  ClockTime = 1 s

scalarTransport execute: age
smoothSolver:  Solving for age, Initial residual = 0.00982604, Final residual = 0.00086472, No Iterations 13

Time = 59

smoothSolver:  Solving for Ux, Initial residual = 0.0046985, Final residual = 0.000288491, No Iterations 5
smoothSolver:  Solving for Uy, Initial residual = 0.0030681, Final residual = 0.000275225, No Iterations 4
GAMG:  Solving for p, Initial residual = 0.00731961, Final residual = 0.000561914, No Iterations 2
time step continuity errors : sum local = 0.00143009, global = -0.000162495, cumulative = 0.0313871
smoothSolver:  Solving for omega, Initial residual = 5.36553e-05, Final residual = 2.67116e-06, No Iterations 3
smoothSolver:  Solving for k, Initial residual = 0.00199533, Final residual = 0.000141028, No Iterations 4
ExecutionTime = 0.74 s  ClockTime = 1 s

scalarTransport execute: age
smoothSolver:  Solving for age, Initial residual = 0.00942517, Final residual = 0.000830365, No Iterations 13

Time = 60

smoothSolver:  Solving for Ux, Initial residual = 0.00436615, Final residual = 0.00043564, No Iterations 4
smoothSolver:  Solving for Uy, Initial residual = 0.00297944, Final residual = 0.000276534, No Iterations 4
GAMG:  Solving for p, Initial residual = 0.00680298, Final residual = 0.000566247, No Iterations 2
time step continuity errors : sum local = 0.00145152, global = -0.000131424, cumulative = 0.0312557
smoothSolver:  Solving for omega, Initial residual = 5.7894e-05, Final residual = 5.2331e-06, No Iterations 2
smoothSolver:  Solving for k, Initial residual = 0.00186047, Final residual = 0.000133458, No Iterations 4
ExecutionTime = 0.76 s  ClockTime = 1 s

scalarTransport execute: age
smoothSolver:  Solving for age, Initial residual = 0.00893629, Final residual = 0.000800231, No Iterations 13

Time = 61

smoothSolver:  Solving for Ux, Initial residual = 0.00406634, Final residual = 0.000243143, No Iterations 5
smoothSolver:  Solving for Uy, Initial residual = 0.00283845, Final residual = 0.000274965, No Iterations 4
GAMG:  Solving for p, Initial residual = 0.00687182, Final residual = 0.000286591, No Iterations 3
time step continuity errors : sum local = 0.000737418, global = -7.38076e-05, cumulative = 0.0311819
smoothSolver:  Solving for omega, Initial residual = 6.11313e-05, Final residual = 5.21288e-06, No Iterations 2
smoothSolver:  Solving for k, Initial residual = 0.00176357, Final residual = 0.000128638, No Iterations 4
ExecutionTime = 0.77 s  ClockTime = 1 s

scalarTransport execute: age
smoothSolver:  Solving for age, Initial residual = 0.00850917, Final residual = 0.000772231, No Iterations 13

Time = 62

smoothSolver:  Solving for Ux, Initial residual = 0.00370257, Final residual = 0.000355266, No Iterations 4
smoothSolver:  Solving for Uy, Initial residual = 0.00282284, Final residual = 0.000174105, No Iterations 5
GAMG:  Solving for p, Initial residual = 0.00613256, Final residual = 0.000560336, No Iterations 2
time step continuity errors : sum local = 0.00145106, global = -5.0371e-06, cumulative = 0.0311769
smoothSolver:  Solving for omega, Initial residual = 5.04104e-05, Final residual = 4.8083e-06, No Iterations 2
smoothSolver:  Solving for k, Initial residual = 0.00170469, Final residual = 0.00012422, No Iterations 4
ExecutionTime = 0.78 s  ClockTime = 1 s

scalarTransport execute: age
smoothSolver:  Solving for age, Initial residual = 0.00798245, Final residual = 0.000702274, No Iterations 13

Time = 63

smoothSolver:  Solving for Ux, Initial residual = 0.00345471, Final residual = 0.000207789, No Iterations 5
smoothSolver:  Solving for Uy, Initial residual = 0.00261709, Final residual = 0.000167361, No Iterations 5
GAMG:  Solving for p, Initial residual = 0.00648314, Final residual = 0.000303489, No Iterations 3
time step continuity errors : sum local = 0.000785977, global = 1.89e-05, cumulative = 0.0311958
smoothSolver:  Solving for omega, Initial residual = 4.75906e-05, Final residual = 4.64327e-06, No Iterations 2
smoothSolver:  Solving for k, Initial residual = 0.00166809, Final residual = 0.000120311, No Iterations 4
ExecutionTime = 0.79 s  ClockTime = 1 s

scalarTransport execute: age
smoothSolver:  Solving for age, Initial residual = 0.00763947, Final residual = 0.000738053, No Iterations 12

Time = 64

smoothSolver:  Solving for Ux, Initial residual = 0.00312782, Final residual = 0.000309333, No Iterations 4
smoothSolver:  Solving for Uy, Initial residual = 0.00250493, Final residual = 0.000159933, No Iterations 5
GAMG:  Solving for p, Initial residual = 0.0055801, Final residual = 0.000216737, No Iterations 3
time step continuity errors : sum local = 0.000560988, global = 5.11325e-05, cumulative = 0.0312469
smoothSolver:  Solving for omega, Initial residual = 4.29427e-05, Final residual = 2.11136e-06, No Iterations 3
smoothSolver:  Solving for k, Initial residual = 0.00162771, Final residual = 0.000116515, No Iterations 4
ExecutionTime = 0.81 s  ClockTime = 1 s

scalarTransport execute: age
smoothSolver:  Solving for age, Initial residual = 0.00727074, Final residual = 0.000666676, No Iterations 12

Time = 65

smoothSolver:  Solving for Ux, Initial residual = 0.00289819, Final residual = 0.000174923, No Iterations 5
smoothSolver:  Solving for Uy, Initial residual = 0.00236409, Final residual = 0.000151781, No Iterations 5
GAMG:  Solving for p, Initial residual = 0.00546622, Final residual = 0.000184065, No Iterations 3
time step continuity errors : sum local = 0.00047548, global = 6.16201e-05, cumulative = 0.0313085
smoothSolver:  Solving for omega, Initial residual = 4.24195e-05, Final residual = 4.14915e-06, No Iterations 2
smoothSolver:  Solving for k, Initial residual = 0.00158773, Final residual = 0.000112421, No Iterations 4
ExecutionTime = 0.82 s  ClockTime = 1 s

scalarTransport execute: age
smoothSolver:  Solving for age, Initial residual = 0.00695302, Final residual = 0.000615904, No Iterations 12

Time = 66

smoothSolver:  Solving for Ux, Initial residual = 0.00271383, Final residual = 0.000163087, No Iterations 5
smoothSolver:  Solving for Uy, Initial residual = 0.0022369, Final residual = 0.000143015, No Iterations 5
GAMG:  Solving for p, Initial residual = 0.00513191, Final residual = 0.000167639, No Iterations 3
time step continuity errors : sum local = 0.000431446, global = 5.2421e-05, cumulative = 0.0313609
smoothSolver:  Solving for omega, Initial residual = 4.05024e-05, Final residual = 1.93358e-06, No Iterations 3
smoothSolver:  Solving for k, Initial residual = 0.00153476, Final residual = 0.00010863, No Iterations 4
ExecutionTime = 0.83 s  ClockTime = 1 s

scalarTransport execute: age
smoothSolver:  Solving for age, Initial residual = 0.00668526, Final residual = 0.000586172, No Iterations 12

Time = 67

smoothSolver:  Solving for Ux, Initial residual = 0.00259202, Final residual = 0.000258068, No Iterations 4
smoothSolver:  Solving for Uy, Initial residual = 0.00212525, Final residual = 0.000132641, No Iterations 5
GAMG:  Solving for p, Initial residual = 0.00473536, Final residual = 0.00015903, No Iterations 3
time step continuity errors : sum local = 0.000407405, global = 4.63896e-05, cumulative = 0.0314073
smoothSolver:  Solving for omega, Initial residual = 3.74716e-05, Final residual = 3.74249e-06, No Iterations 2
smoothSolver:  Solving for k, Initial residual = 0.00145973, Final residual = 0.000104319, No Iterations 4
ExecutionTime = 0.84 s  ClockTime = 1 s

scalarTransport execute: age
smoothSolver:  Solving for age, Initial residual = 0.00653263, Final residual = 0.000575627, No Iterations 12

Time = 68

smoothSolver:  Solving for Ux, Initial residual = 0.00250779, Final residual = 0.000250693, No Iterations 4
smoothSolver:  Solving for Uy, Initial residual = 0.00197899, Final residual = 0.000121545, No Iterations 5
GAMG:  Solving for p, Initial residual = 0.0045707, Final residual = 0.000187393, No Iterations 3
time step continuity errors : sum local = 0.00047809, global = 4.73791e-05, cumulative = 0.0314547
smoothSolver:  Solving for omega, Initial residual = 3.97508e-05, Final residual = 3.75121e-06, No Iterations 2
smoothSolver:  Solving for k, Initial residual = 0.00138797, Final residual = 0.000100707, No Iterations 4
ExecutionTime = 0.85 s  ClockTime = 1 s

scalarTransport execute: age
smoothSolver:  Solving for age, Initial residual = 0.00636268, Final residual = 0.000571357, No Iterations 12

Time = 69

smoothSolver:  Solving for Ux, Initial residual = 0.00155901, Final residual = 9.68e-05, No Iterations 4
smoothSolver:  Solving for Uy, Initial residual = 0.00607134, Final residual = 0.000526916, No Iterations 2
GAMG:  Solving for p, Initial residual = 0.00406972, Final residual = 0.000159745, No Iterations 3
time step continuity errors : sum local = 0.000406165, global = 4.52982e-05, cumulative = 0.0315
smoothSolver:  Solving for omega, Initial residual = 3.23101e-05, Final residual = 1.58321e-06, No Iterations 3
smoothSolver:  Solving for k, Initial residual = 0.00128493, Final residual = 9.51273e-05, No Iterations 4
ExecutionTime = 0.87 s  ClockTime = 1 s

scalarTransport execute: age
smoothSolver:  Solving for age, Initial residual = 0.00614128, Final residual = 0.000552683, No Iterations 12

Time = 70

smoothSolver:  Solving for Ux, Initial residual = 0.00221105, Final residual = 0.000218484, No Iterations 4
smoothSolver:  Solving for Uy, Initial residual = 0.00179612, Final residual = 0.000111236, No Iterations 5
GAMG:  Solving for p, Initial residual = 0.00408357, Final residual = 0.000400491, No Iterations 2
time step continuity errors : sum local = 0.00101367, global = 3.13305e-05, cumulative = 0.0315313
smoothSolver:  Solving for omega, Initial residual = 3.45171e-05, Final residual = 3.36164e-06, No Iterations 2
smoothSolver:  Solving for k, Initial residual = 0.00122702, Final residual = 9.11546e-05, No Iterations 4
ExecutionTime = 0.88 s  ClockTime = 1 s

scalarTransport execute: age
smoothSolver:  Solving for age, Initial residual = 0.00602356, Final residual = 0.00055238, No Iterations 12

Time = 71

smoothSolver:  Solving for Ux, Initial residual = 0.00213872, Final residual = 0.000130499, No Iterations 5
smoothSolver:  Solving for Uy, Initial residual = 0.00162974, Final residual = 9.87267e-05, No Iterations 5
GAMG:  Solving for p, Initial residual = 0.00412447, Final residual = 0.000148886, No Iterations 3
time step continuity errors : sum local = 0.00037544, global = 1.93951e-05, cumulative = 0.0315507
smoothSolver:  Solving for omega, Initial residual = 3.13699e-05, Final residual = 1.71318e-06, No Iterations 3
smoothSolver:  Solving for k, Initial residual = 0.00117076, Final residual = 8.69503e-05, No Iterations 4
ExecutionTime = 0.89 s  ClockTime = 1 s

scalarTransport execute: age
smoothSolver:  Solving for age, Initial residual = 0.00591382, Final residual = 0.000549898, No Iterations 12

Time = 72

smoothSolver:  Solving for Ux, Initial residual = 0.00203756, Final residual = 0.000123007, No Iterations 5
smoothSolver:  Solving for Uy, Initial residual = 0.00149968, Final residual = 0.000143457, No Iterations 4
GAMG:  Solving for p, Initial residual = 0.00333888, Final residual = 0.000106157, No Iterations 3
time step continuity errors : sum local = 0.000266608, global = 1.64245e-06, cumulative = 0.0315524
smoothSolver:  Solving for omega, Initial residual = 3.06685e-05, Final residual = 1.59668e-06, No Iterations 3
smoothSolver:  Solving for k, Initial residual = 0.00110603, Final residual = 8.22784e-05, No Iterations 4
ExecutionTime = 0.9 s  ClockTime = 1 s

scalarTransport execute: age
smoothSolver:  Solving for age, Initial residual = 0.00580539, Final residual = 0.00054258, No Iterations 12

Time = 73

smoothSolver:  Solving for Ux, Initial residual = 0.00187365, Final residual = 0.000116691, No Iterations 5
smoothSolver:  Solving for Uy, Initial residual = 0.00134751, Final residual = 0.000131843, No Iterations 4
GAMG:  Solving for p, Initial residual = 0.00306692, Final residual = 9.42149e-05, No Iterations 3
time step continuity errors : sum local = 0.000235888, global = -1.74074e-05, cumulative = 0.031535
smoothSolver:  Solving for omega, Initial residual = 2.89479e-05, Final residual = 1.48985e-06, No Iterations 3
smoothSolver:  Solving for k, Initial residual = 0.00103149, Final residual = 7.72421e-05, No Iterations 4
ExecutionTime = 0.92 s  ClockTime = 1 s

scalarTransport execute: age
smoothSolver:  Solving for age, Initial residual = 0.00561487, Final residual = 0.00052302, No Iterations 12

Time = 74

smoothSolver:  Solving for Ux, Initial residual = 0.00172743, Final residual = 0.000108752, No Iterations 5
smoothSolver:  Solving for Uy, Initial residual = 0.00122116, Final residual = 0.000117889, No Iterations 4
GAMG:  Solving for p, Initial residual = 0.0027693, Final residual = 0.000272618, No Iterations 2
time step continuity errors : sum local = 0.000680967, global = -4.11257e-05, cumulative = 0.0314938
smoothSolver:  Solving for omega, Initial residual = 2.37371e-05, Final residual = 1.36406e-06, No Iterations 3
smoothSolver:  Solving for k, Initial residual = 0.000956285, Final residual = 7.17096e-05, No Iterations 4
ExecutionTime = 0.93 s  ClockTime = 1 s

scalarTransport execute: age
smoothSolver:  Solving for age, Initial residual = 0.00529946, Final residual = 0.000493307, No Iterations 12

Time = 75

smoothSolver:  Solving for Ux, Initial residual = 0.00153554, Final residual = 9.53865e-05, No Iterations 3
smoothSolver:  Solving for Uy, Initial residual = 0.00660039, Final residual = 0.000538957, No Iterations 1
GAMG:  Solving for p, Initial residual = 0.0022685, Final residual = 0.00021623, No Iterations 2
time step continuity errors : sum local = 0.000539275, global = -4.88324e-05, cumulative = 0.031445
smoothSolver:  Solving for omega, Initial residual = 1.9415e-05, Final residual = 1.04065e-06, No Iterations 3
smoothSolver:  Solving for k, Initial residual = 0.000855432, Final residual = 6.47647e-05, No Iterations 4
ExecutionTime = 0.94 s  ClockTime = 1 s

scalarTransport execute: age
smoothSolver:  Solving for age, Initial residual = 0.00496362, Final residual = 0.000451113, No Iterations 12

Time = 76

smoothSolver:  Solving for Ux, Initial residual = 0.00143885, Final residual = 9.27974e-05, No Iterations 5
smoothSolver:  Solving for Uy, Initial residual = 0.00111203, Final residual = 0.000108853, No Iterations 4
GAMG:  Solving for p, Initial residual = 0.00233997, Final residual = 0.000159909, No Iterations 2
time step continuity errors : sum local = 0.000398466, global = -5.43746e-05, cumulative = 0.0313906
smoothSolver:  Solving for omega, Initial residual = 2.57076e-05, Final residual = 2.24199e-06, No Iterations 2
smoothSolver:  Solving for k, Initial residual = 0.000789701, Final residual = 5.90025e-05, No Iterations 4
ExecutionTime = 0.95 s  ClockTime = 1 s

scalarTransport execute: age
smoothSolver:  Solving for age, Initial residual = 0.0047487, Final residual = 0.000427488, No Iterations 12

Time = 77

smoothSolver:  Solving for Ux, Initial residual = 0.00137994, Final residual = 8.82729e-05, No Iterations 5
smoothSolver:  Solving for Uy, Initial residual = 0.000960886, Final residual = 9.07038e-05, No Iterations 4
GAMG:  Solving for p, Initial residual = 0.00200574, Final residual = 0.000140937, No Iterations 2
time step continuity errors : sum local = 0.000351283, global = -4.24337e-05, cumulative = 0.0313482
smoothSolver:  Solving for omega, Initial residual = 2.4725e-05, Final residual = 2.13025e-06, No Iterations 2
smoothSolver:  Solving for k, Initial residual = 0.000718612, Final residual = 5.31877e-05, No Iterations 4
ExecutionTime = 0.96 s  ClockTime = 1 s

scalarTransport execute: age
smoothSolver:  Solving for age, Initial residual = 0.00454897, Final residual = 0.000412948, No Iterations 12

Time = 78

smoothSolver:  Solving for Ux, Initial residual = 0.00131854, Final residual = 8.32774e-05, No Iterations 5
smoothSolver:  Solving for Uy, Initial residual = 0.000849286, Final residual = 7.84955e-05, No Iterations 4
GAMG:  Solving for p, Initial residual = 0.00180625, Final residual = 0.000120655, No Iterations 2
time step continuity errors : sum local = 0.000301187, global = -3.57594e-05, cumulative = 0.0313124
smoothSolver:  Solving for omega, Initial residual = 1.92263e-05, Final residual = 9.67354e-07, No Iterations 3
smoothSolver:  Solving for k, Initial residual = 0.000646198, Final residual = 4.73783e-05, No Iterations 4
ExecutionTime = 0.98 s  ClockTime = 1 s

scalarTransport execute: age
smoothSolver:  Solving for age, Initial residual = 0.00438989, Final residual = 0.000407456, No Iterations 12

Time = 79

smoothSolver:  Solving for Ux, Initial residual = 0.00123626, Final residual = 7.97151e-05, No Iterations 5
smoothSolver:  Solving for Uy, Initial residual = 0.00076533, Final residual = 7.35825e-05, No Iterations 4
GAMG:  Solving for p, Initial residual = 0.00173623, Final residual = 0.000116398, No Iterations 2
time step continuity errors : sum local = 0.000290677, global = -3.48578e-05, cumulative = 0.0312776
smoothSolver:  Solving for omega, Initial residual = 1.91014e-05, Final residual = 1.77145e-06, No Iterations 2
smoothSolver:  Solving for k, Initial residual = 0.000581399, Final residual = 4.20135e-05, No Iterations 4
ExecutionTime = 0.99 s  ClockTime = 1 s

scalarTransport execute: age
smoothSolver:  Solving for age, Initial residual = 0.00425542, Final residual = 0.000407063, No Iterations 12

Time = 80

smoothSolver:  Solving for Ux, Initial residual = 0.00116026, Final residual = 7.51917e-05, No Iterations 5
smoothSolver:  Solving for Uy, Initial residual = 0.000719306, Final residual = 7.07154e-05, No Iterations 4
GAMG:  Solving for p, Initial residual = 0.00162387, Final residual = 0.000109049, No Iterations 2
time step continuity errors : sum local = 0.000272524, global = -3.06378e-05, cumulative = 0.0312469
smoothSolver:  Solving for omega, Initial residual = 1.68323e-05, Final residual = 1.63137e-06, No Iterations 2
smoothSolver:  Solving for k, Initial residual = 0.000527856, Final residual = 3.73846e-05, No Iterations 4
ExecutionTime = 1 s  ClockTime = 1 s

scalarTransport execute: age
smoothSolver:  Solving for age, Initial residual = 0.00420717, Final residual = 0.000400352, No Iterations 12

Time = 81

smoothSolver:  Solving for Ux, Initial residual = 0.00108676, Final residual = 7.14196e-05, No Iterations 5
smoothSolver:  Solving for Uy, Initial residual = 0.000679795, Final residual = 4.23037e-05, No Iterations 5
GAMG:  Solving for p, Initial residual = 0.00156783, Final residual = 0.000114175, No Iterations 2
time step continuity errors : sum local = 0.000285549, global = -2.59208e-05, cumulative = 0.031221
smoothSolver:  Solving for omega, Initial residual = 1.47634e-05, Final residual = 7.25505e-07, No Iterations 3
smoothSolver:  Solving for k, Initial residual = 0.000487759, Final residual = 3.33718e-05, No Iterations 4
ExecutionTime = 1.01 s  ClockTime = 1 s

scalarTransport execute: age
smoothSolver:  Solving for age, Initial residual = 0.00412483, Final residual = 0.000384576, No Iterations 12

Time = 82

smoothSolver:  Solving for Ux, Initial residual = 0.00098782, Final residual = 6.30105e-05, No Iterations 5
smoothSolver:  Solving for Uy, Initial residual = 0.000905135, Final residual = 6.65977e-05, No Iterations 4
GAMG:  Solving for p, Initial residual = 0.00151754, Final residual = 0.000133265, No Iterations 2
time step continuity errors : sum local = 0.000333451, global = -2.15509e-05, cumulative = 0.0311995
smoothSolver:  Solving for omega, Initial residual = 1.20233e-05, Final residual = 6.25146e-07, No Iterations 3
smoothSolver:  Solving for k, Initial residual = 0.000460459, Final residual = 3.0037e-05, No Iterations 4
ExecutionTime = 1.02 s  ClockTime = 1 s

scalarTransport execute: age
smoothSolver:  Solving for age, Initial residual = 0.00399002, Final residual = 0.000359926, No Iterations 12

Time = 83

smoothSolver:  Solving for Ux, Initial residual = 0.000967846, Final residual = 6.39036e-05, No Iterations 5
smoothSolver:  Solving for Uy, Initial residual = 0.000643017, Final residual = 3.93509e-05, No Iterations 5
GAMG:  Solving for p, Initial residual = 0.00148643, Final residual = 0.000141215, No Iterations 2
time step continuity errors : sum local = 0.000353397, global = -1.66665e-05, cumulative = 0.0311828
smoothSolver:  Solving for omega, Initial residual = 1.93465e-05, Final residual = 1.20744e-06, No Iterations 2
smoothSolver:  Solving for k, Initial residual = 0.00044107, Final residual = 2.7606e-05, No Iterations 4
ExecutionTime = 1.04 s  ClockTime = 1 s

scalarTransport execute: age
smoothSolver:  Solving for age, Initial residual = 0.0038176, Final residual = 0.000334177, No Iterations 12

Time = 84

smoothSolver:  Solving for Ux, Initial residual = 0.000916518, Final residual = 6.04394e-05, No Iterations 5
smoothSolver:  Solving for Uy, Initial residual = 0.000603039, Final residual = 3.73136e-05, No Iterations 5
GAMG:  Solving for p, Initial residual = 0.00143204, Final residual = 6.00873e-05, No Iterations 3
time step continuity errors : sum local = 0.000150365, global = -8.3332e-06, cumulative = 0.0311745
smoothSolver:  Solving for omega, Initial residual = 1.99737e-05, Final residual = 1.25262e-06, No Iterations 2
smoothSolver:  Solving for k, Initial residual = 0.000429299, Final residual = 2.60367e-05, No Iterations 4
ExecutionTime = 1.05 s  ClockTime = 1 s

scalarTransport execute: age
smoothSolver:  Solving for age, Initial residual = 0.00364209, Final residual = 0.000359402, No Iterations 11

Time = 85

smoothSolver:  Solving for Ux, Initial residual = 0.000888759, Final residual = 5.44711e-05, No Iterations 5
smoothSolver:  Solving for Uy, Initial residual = 0.000651193, Final residual = 6.11597e-05, No Iterations 4
GAMG:  Solving for p, Initial residual = 0.00130907, Final residual = 4.70102e-05, No Iterations 3
time step continuity errors : sum local = 0.000117664, global = 3.71521e-06, cumulative = 0.0311782
smoothSolver:  Solving for omega, Initial residual = 1.51107e-05, Final residual = 1.21701e-06, No Iterations 2
smoothSolver:  Solving for k, Initial residual = 0.000414227, Final residual = 2.50093e-05, No Iterations 4
ExecutionTime = 1.06 s  ClockTime = 1 s

scalarTransport execute: age
smoothSolver:  Solving for age, Initial residual = 0.00345905, Final residual = 0.000336649, No Iterations 11

Time = 86

smoothSolver:  Solving for Ux, Initial residual = 0.000823193, Final residual = 5.09086e-05, No Iterations 5
smoothSolver:  Solving for Uy, Initial residual = 0.000595052, Final residual = 5.88063e-05, No Iterations 4
GAMG:  Solving for p, Initial residual = 0.00128665, Final residual = 5.21236e-05, No Iterations 3
time step continuity errors : sum local = 0.00013039, global = 1.45853e-05, cumulative = 0.0311928
smoothSolver:  Solving for omega, Initial residual = 1.45286e-05, Final residual = 1.18156e-06, No Iterations 2
smoothSolver:  Solving for k, Initial residual = 0.000397297, Final residual = 2.43844e-05, No Iterations 4
ExecutionTime = 1.07 s  ClockTime = 1 s

scalarTransport execute: age
smoothSolver:  Solving for age, Initial residual = 0.00330533, Final residual = 0.000319163, No Iterations 11

Time = 87

smoothSolver:  Solving for Ux, Initial residual = 0.000776791, Final residual = 4.68993e-05, No Iterations 5
smoothSolver:  Solving for Uy, Initial residual = 0.000574896, Final residual = 5.57685e-05, No Iterations 4
GAMG:  Solving for p, Initial residual = 0.00122534, Final residual = 4.38987e-05, No Iterations 3
time step continuity errors : sum local = 0.000109733, global = 1.48242e-05, cumulative = 0.0312076
smoothSolver:  Solving for omega, Initial residual = 1.61527e-05, Final residual = 1.18247e-06, No Iterations 2
smoothSolver:  Solving for k, Initial residual = 0.000376333, Final residual = 2.39038e-05, No Iterations 4
ExecutionTime = 1.09 s  ClockTime = 1 s

scalarTransport execute: age
smoothSolver:  Solving for age, Initial residual = 0.00317241, Final residual = 0.00030508, No Iterations 11

Time = 88

smoothSolver:  Solving for Ux, Initial residual = 0.00074678, Final residual = 7.20312e-05, No Iterations 4
smoothSolver:  Solving for Uy, Initial residual = 0.000566181, Final residual = 5.25144e-05, No Iterations 4
GAMG:  Solving for p, Initial residual = 0.00115101, Final residual = 3.64897e-05, No Iterations 3
time step continuity errors : sum local = 9.10937e-05, global = 1.14278e-05, cumulative = 0.031219
smoothSolver:  Solving for omega, Initial residual = 1.23442e-05, Final residual = 1.1441e-06, No Iterations 2
smoothSolver:  Solving for k, Initial residual = 0.000350784, Final residual = 2.33777e-05, No Iterations 4
ExecutionTime = 1.1 s  ClockTime = 1 s

scalarTransport execute: age
smoothSolver:  Solving for age, Initial residual = 0.0030731, Final residual = 0.000291466, No Iterations 11

Time = 89

smoothSolver:  Solving for Ux, Initial residual = 0.000708715, Final residual = 6.87476e-05, No Iterations 4
smoothSolver:  Solving for Uy, Initial residual = 0.000525099, Final residual = 4.79454e-05, No Iterations 4
GAMG:  Solving for p, Initial residual = 0.00111456, Final residual = 3.66708e-05, No Iterations 3
time step continuity errors : sum local = 9.14213e-05, global = 1.19681e-05, cumulative = 0.031231
smoothSolver:  Solving for omega, Initial residual = 1.12031e-05, Final residual = 1.09869e-06, No Iterations 2
smoothSolver:  Solving for k, Initial residual = 0.000327715, Final residual = 2.28788e-05, No Iterations 4
ExecutionTime = 1.11 s  ClockTime = 1 s

scalarTransport execute: age
smoothSolver:  Solving for age, Initial residual = 0.00298499, Final residual = 0.000279369, No Iterations 11

Time = 90

smoothSolver:  Solving for Ux, Initial residual = 0.000670406, Final residual = 6.46608e-05, No Iterations 4
smoothSolver:  Solving for Uy, Initial residual = 0.000521154, Final residual = 4.4293e-05, No Iterations 4
GAMG:  Solving for p, Initial residual = 0.00107707, Final residual = 3.37859e-05, No Iterations 3
time step continuity errors : sum local = 8.41511e-05, global = 1.15185e-05, cumulative = 0.0312425
smoothSolver:  Solving for omega, Initial residual = 9.91412e-06, Final residual = 5.09405e-07, No Iterations 3
smoothSolver:  Solving for k, Initial residual = 0.000302711, Final residual = 2.19423e-05, No Iterations 4
ExecutionTime = 1.12 s  ClockTime = 1 s

scalarTransport execute: age
smoothSolver:  Solving for age, Initial residual = 0.00289681, Final residual = 0.000267965, No Iterations 11

Time = 91

smoothSolver:  Solving for Ux, Initial residual = 0.00064305, Final residual = 6.15776e-05, No Iterations 4
smoothSolver:  Solving for Uy, Initial residual = 0.000462503, Final residual = 4.09143e-05, No Iterations 4
GAMG:  Solving for p, Initial residual = 0.00102823, Final residual = 0.000102199, No Iterations 2
time step continuity errors : sum local = 0.000254287, global = 1.07265e-05, cumulative = 0.0312532
smoothSolver:  Solving for omega, Initial residual = 1.28019e-05, Final residual = 9.38655e-07, No Iterations 2
smoothSolver:  Solving for k, Initial residual = 0.000281787, Final residual = 2.09086e-05, No Iterations 4
ExecutionTime = 1.13 s  ClockTime = 1 s

scalarTransport execute: age
smoothSolver:  Solving for age, Initial residual = 0.00282123, Final residual = 0.000259083, No Iterations 11

Time = 92

smoothSolver:  Solving for Ux, Initial residual = 0.000604851, Final residual = 5.96563e-05, No Iterations 4
smoothSolver:  Solving for Uy, Initial residual = 0.000417791, Final residual = 3.774e-05, No Iterations 4
GAMG:  Solving for p, Initial residual = 0.00103269, Final residual = 3.54392e-05, No Iterations 3
time step continuity errors : sum local = 8.81237e-05, global = 1.04597e-05, cumulative = 0.0312637
smoothSolver:  Solving for omega, Initial residual = 1.56709e-05, Final residual = 9.30008e-07, No Iterations 2
smoothSolver:  Solving for k, Initial residual = 0.00025981, Final residual = 1.95863e-05, No Iterations 4
ExecutionTime = 1.15 s  ClockTime = 1 s

scalarTransport execute: age
smoothSolver:  Solving for age, Initial residual = 0.002754, Final residual = 0.000252997, No Iterations 11

Time = 93

smoothSolver:  Solving for Ux, Initial residual = 0.000567846, Final residual = 5.60314e-05, No Iterations 4
smoothSolver:  Solving for Uy, Initial residual = 0.000387151, Final residual = 3.42974e-05, No Iterations 4
GAMG:  Solving for p, Initial residual = 0.000875187, Final residual = 6.87543e-05, No Iterations 2
time step continuity errors : sum local = 0.000170788, global = 5.70324e-06, cumulative = 0.0312694
smoothSolver:  Solving for omega, Initial residual = 1.24903e-05, Final residual = 8.66689e-07, No Iterations 2
smoothSolver:  Solving for k, Initial residual = 0.000242961, Final residual = 1.83667e-05, No Iterations 4
ExecutionTime = 1.16 s  ClockTime = 1 s

scalarTransport execute: age
smoothSolver:  Solving for age, Initial residual = 0.00265602, Final residual = 0.000242155, No Iterations 11

Time = 94

smoothSolver:  Solving for Ux, Initial residual = 0.000470004, Final residual = 2.97147e-05, No Iterations 3
smoothSolver:  Solving for Uy, Initial residual = 0.00621469, Final residual = 0.000164727, No Iterations 1
GAMG:  Solving for p, Initial residual = 0.000794242, Final residual = 7.79e-05, No Iterations 2
time step continuity errors : sum local = 0.000193439, global = 5.87326e-06, cumulative = 0.0312753
smoothSolver:  Solving for omega, Initial residual = 9.0528e-06, Final residual = 6.78541e-07, No Iterations 2
smoothSolver:  Solving for k, Initial residual = 0.000222375, Final residual = 1.67601e-05, No Iterations 4
ExecutionTime = 1.17 s  ClockTime = 1 s

scalarTransport execute: age
smoothSolver:  Solving for age, Initial residual = 0.00254677, Final residual = 0.000231489, No Iterations 11

Time = 95

smoothSolver:  Solving for Ux, Initial residual = 0.000491582, Final residual = 3.01704e-05, No Iterations 5
smoothSolver:  Solving for Uy, Initial residual = 0.0003587, Final residual = 3.3593e-05, No Iterations 4
GAMG:  Solving for p, Initial residual = 0.000841946, Final residual = 6.73809e-05, No Iterations 2
time step continuity errors : sum local = 0.000167262, global = 4.04778e-06, cumulative = 0.0312793
smoothSolver:  Solving for omega, Initial residual = 1.42002e-05, Final residual = 7.90624e-07, No Iterations 2
smoothSolver:  Solving for k, Initial residual = 0.000215486, Final residual = 1.56193e-05, No Iterations 4
[...]

smoothSolver:  Solving for Ux, Initial residual = 5.62828e-06, Final residual = 5.38622e-07, No Iterations 2
smoothSolver:  Solving for Uy, Initial residual = 5.25518e-06, Final residual = 4.24051e-07, No Iterations 2
GAMG:  Solving for p, Initial residual = 1.8561e-05, Final residual = 1.27679e-06, No Iterations 2
time step continuity errors : sum local = 3.16541e-06, global = 3.79067e-08, cumulative = 0.0312825
smoothSolver:  Solving for omega, Initial residual = 2.98173e-06, Final residual = 1.71236e-07, No Iterations 1
smoothSolver:  Solving for k, Initial residual = 3.11433e-07, Final residual = 1.74348e-08, No Iterations 3
ExecutionTime = 22.16 s  ClockTime = 22 s

scalarTransport execute: age
smoothSolver:  Solving for age, Initial residual = 2.97093e-05, Final residual = 2.82713e-06, No Iterations 13

Time = 1978

smoothSolver:  Solving for Ux, Initial residual = 5.8137e-06, Final residual = 4.83051e-07, No Iterations 2
smoothSolver:  Solving for Uy, Initial residual = 4.57137e-06, Final residual = 3.50114e-07, No Iterations 2
GAMG:  Solving for p, Initial residual = 1.70563e-05, Final residual = 1.4667e-06, No Iterations 2
time step continuity errors : sum local = 3.63621e-06, global = 2.52301e-08, cumulative = 0.0312826
smoothSolver:  Solving for omega, Initial residual = 4.46081e-06, Final residual = 2.81372e-07, No Iterations 1
smoothSolver:  Solving for k, Initial residual = 3.00716e-07, Final residual = 1.77393e-08, No Iterations 3
ExecutionTime = 22.17 s  ClockTime = 22 s

scalarTransport execute: age
smoothSolver:  Solving for age, Initial residual = 2.82269e-05, Final residual = 2.6414e-06, No Iterations 13

Time = 1979

smoothSolver:  Solving for Ux, Initial residual = 4.48573e-06, Final residual = 2.61974e-07, No Iterations 3
smoothSolver:  Solving for Uy, Initial residual = 1.45335e-05, Final residual = 9.11397e-07, No Iterations 1
GAMG:  Solving for p, Initial residual = 2.17768e-05, Final residual = 1.63722e-06, No Iterations 2
time step continuity errors : sum local = 4.05899e-06, global = 1.3468e-08, cumulative = 0.0312826
smoothSolver:  Solving for omega, Initial residual = 3.95588e-06, Final residual = 2.51468e-07, No Iterations 1
smoothSolver:  Solving for k, Initial residual = 3.19617e-07, Final residual = 1.81926e-08, No Iterations 3
ExecutionTime = 22.18 s  ClockTime = 22 s

scalarTransport execute: age
smoothSolver:  Solving for age, Initial residual = 3.00417e-05, Final residual = 2.6436e-06, No Iterations 13

Time = 1980

smoothSolver:  Solving for Ux, Initial residual = 3.91022e-06, Final residual = 2.59833e-07, No Iterations 3
smoothSolver:  Solving for Uy, Initial residual = 4.72091e-06, Final residual = 3.86236e-07, No Iterations 2
GAMG:  Solving for p, Initial residual = 1.51596e-05, Final residual = 9.90468e-07, No Iterations 2
time step continuity errors : sum local = 2.45556e-06, global = -2.44877e-10, cumulative = 0.0312826
smoothSolver:  Solving for omega, Initial residual = 2.53854e-06, Final residual = 1.56402e-07, No Iterations 1
smoothSolver:  Solving for k, Initial residual = 3.05285e-07, Final residual = 1.84876e-08, No Iterations 3
ExecutionTime = 22.19 s  ClockTime = 22 s

scalarTransport execute: age
smoothSolver:  Solving for age, Initial residual = 2.72683e-05, Final residual = 2.4646e-06, No Iterations 13

Time = 1981

smoothSolver:  Solving for Ux, Initial residual = 4.96397e-06, Final residual = 4.15293e-07, No Iterations 2
smoothSolver:  Solving for Uy, Initial residual = 4.04244e-06, Final residual = 3.4063e-07, No Iterations 2
GAMG:  Solving for p, Initial residual = 1.59678e-05, Final residual = 1.3244e-06, No Iterations 2
time step continuity errors : sum local = 3.28343e-06, global = -1.12808e-08, cumulative = 0.0312826
smoothSolver:  Solving for omega, Initial residual = 1.2086e-06, Final residual = 7.01871e-08, No Iterations 1
smoothSolver:  Solving for k, Initial residual = 3.07246e-07, Final residual = 1.85692e-08, No Iterations 3
ExecutionTime = 22.2 s  ClockTime = 22 s

scalarTransport execute: age
smoothSolver:  Solving for age, Initial residual = 2.72311e-05, Final residual = 2.4732e-06, No Iterations 13

Time = 1982

smoothSolver:  Solving for Ux, Initial residual = 6.5531e-06, Final residual = 3.99328e-07, No Iterations 2
smoothSolver:  Solving for Uy, Initial residual = 0.000356253, Final residual = 9.42688e-07, No Iterations 1
GAMG:  Solving for p, Initial residual = 1.8538e-05, Final residual = 1.3756e-06, No Iterations 2
time step continuity errors : sum local = 3.41036e-06, global = -1.72694e-08, cumulative = 0.0312825
smoothSolver:  Solving for omega, Initial residual = 1.68192e-06, Final residual = 1.17502e-07, No Iterations 1
smoothSolver:  Solving for k, Initial residual = 3.77729e-07, Final residual = 3.67612e-08, No Iterations 2
ExecutionTime = 22.21 s  ClockTime = 22 s

scalarTransport execute: age
smoothSolver:  Solving for age, Initial residual = 2.78808e-05, Final residual = 2.59137e-06, No Iterations 13

Time = 1983

smoothSolver:  Solving for Ux, Initial residual = 9.96242e-05, Final residual = 1.1237e-06, No Iterations 1
smoothSolver:  Solving for Uy, Initial residual = 7.81937e-05, Final residual = 8.79143e-07, No Iterations 1
GAMG:  Solving for p, Initial residual = 2.17385e-05, Final residual = 1.76917e-06, No Iterations 2
time step continuity errors : sum local = 4.38613e-06, global = -2.107e-08, cumulative = 0.0312825
smoothSolver:  Solving for omega, Initial residual = 5.22426e-06, Final residual = 2.5006e-07, No Iterations 1
smoothSolver:  Solving for k, Initial residual = 4.21772e-07, Final residual = 3.65451e-08, No Iterations 2
ExecutionTime = 22.22 s  ClockTime = 22 s

scalarTransport execute: age
smoothSolver:  Solving for age, Initial residual = 2.83111e-05, Final residual = 2.5464e-06, No Iterations 13

Time = 1984

smoothSolver:  Solving for Ux, Initial residual = 8.1302e-06, Final residual = 4.81308e-07, No Iterations 2
smoothSolver:  Solving for Uy, Initial residual = 7.61426e-06, Final residual = 4.47144e-07, No Iterations 2
GAMG:  Solving for p, Initial residual = 2.29024e-05, Final residual = 1.5606e-06, No Iterations 2
time step continuity errors : sum local = 3.86903e-06, global = -1.84952e-08, cumulative = 0.0312825
smoothSolver:  Solving for omega, Initial residual = 7.17821e-06, Final residual = 3.63174e-07, No Iterations 1
smoothSolver:  Solving for k, Initial residual = 3.78969e-07, Final residual = 1.92063e-08, No Iterations 3
ExecutionTime = 22.24 s  ClockTime = 22 s

scalarTransport execute: age
smoothSolver:  Solving for age, Initial residual = 2.8731e-05, Final residual = 2.54773e-06, No Iterations 13

Time = 1985

smoothSolver:  Solving for Ux, Initial residual = 4.62552e-06, Final residual = 4.62375e-07, No Iterations 2
smoothSolver:  Solving for Uy, Initial residual = 4.66905e-06, Final residual = 3.34249e-07, No Iterations 2
GAMG:  Solving for p, Initial residual = 1.65801e-05, Final residual = 1.3923e-06, No Iterations 2
time step continuity errors : sum local = 3.45181e-06, global = -9.12954e-09, cumulative = 0.0312825
smoothSolver:  Solving for omega, Initial residual = 4.03026e-06, Final residual = 1.90594e-07, No Iterations 1
smoothSolver:  Solving for k, Initial residual = 3.12089e-07, Final residual = 1.8529e-08, No Iterations 3
ExecutionTime = 22.25 s  ClockTime = 22 s

scalarTransport execute: age
smoothSolver:  Solving for age, Initial residual = 2.80319e-05, Final residual = 2.73791e-06, No Iterations 13

Time = 1986

smoothSolver:  Solving for Ux, Initial residual = 0.000397312, Final residual = 7.66413e-07, No Iterations 1
smoothSolver:  Solving for Uy, Initial residual = 0.000244942, Final residual = 8.21496e-07, No Iterations 1
GAMG:  Solving for p, Initial residual = 1.67951e-05, Final residual = 1.34296e-06, No Iterations 2
time step continuity errors : sum local = 3.32942e-06, global = -5.83999e-10, cumulative = 0.0312825
smoothSolver:  Solving for omega, Initial residual = 3.11571e-06, Final residual = 1.73656e-07, No Iterations 1
smoothSolver:  Solving for k, Initial residual = 2.98154e-07, Final residual = 1.69107e-08, No Iterations 3
ExecutionTime = 22.26 s  ClockTime = 22 s

scalarTransport execute: age
smoothSolver:  Solving for age, Initial residual = 2.75654e-05, Final residual = 2.65013e-06, No Iterations 13

Time = 1987

smoothSolver:  Solving for Ux, Initial residual = 4.86176e-06, Final residual = 4.29867e-07, No Iterations 2
smoothSolver:  Solving for Uy, Initial residual = 4.73846e-06, Final residual = 3.70385e-07, No Iterations 2
GAMG:  Solving for p, Initial residual = 1.62026e-05, Final residual = 1.27785e-06, No Iterations 2
time step continuity errors : sum local = 3.16804e-06, global = 1.18966e-08, cumulative = 0.0312825
smoothSolver:  Solving for omega, Initial residual = 4.85781e-06, Final residual = 2.3862e-07, No Iterations 1
smoothSolver:  Solving for k, Initial residual = 2.92867e-07, Final residual = 1.68951e-08, No Iterations 3
ExecutionTime = 22.27 s  ClockTime = 23 s

scalarTransport execute: age
smoothSolver:  Solving for age, Initial residual = 2.69161e-05, Final residual = 2.44971e-06, No Iterations 13

Time = 1988

smoothSolver:  Solving for Ux, Initial residual = 3.02931e-06, Final residual = 1.79421e-07, No Iterations 3
smoothSolver:  Solving for Uy, Initial residual = 2.80106e-06, Final residual = 1.70142e-07, No Iterations 3
GAMG:  Solving for p, Initial residual = 1.34506e-05, Final residual = 9.81662e-07, No Iterations 2
time step continuity errors : sum local = 2.43372e-06, global = 2.77478e-08, cumulative = 0.0312825
smoothSolver:  Solving for omega, Initial residual = 2.61611e-06, Final residual = 1.35316e-07, No Iterations 1
smoothSolver:  Solving for k, Initial residual = 2.80517e-07, Final residual = 1.75454e-08, No Iterations 3
ExecutionTime = 22.28 s  ClockTime = 23 s

scalarTransport execute: age
smoothSolver:  Solving for age, Initial residual = 2.58162e-05, Final residual = 2.41275e-06, No Iterations 13

Time = 1989

smoothSolver:  Solving for Ux, Initial residual = 3.14782e-06, Final residual = 1.86624e-07, No Iterations 3
smoothSolver:  Solving for Uy, Initial residual = 3.14471e-06, Final residual = 2.72025e-07, No Iterations 2
GAMG:  Solving for p, Initial residual = 9.53162e-06, Final residual = 8.84355e-07, No Iterations 2
time step continuity errors : sum local = 2.19247e-06, global = 3.945e-08, cumulative = 0.0312826
smoothSolver:  Solving for omega, Initial residual = 7.58148e-07, Final residual = 4.07893e-08, No Iterations 1
smoothSolver:  Solving for k, Initial residual = 2.7577e-07, Final residual = 1.76804e-08, No Iterations 3
ExecutionTime = 22.29 s  ClockTime = 23 s

scalarTransport execute: age
smoothSolver:  Solving for age, Initial residual = 2.50134e-05, Final residual = 2.33532e-06, No Iterations 13

Time = 1990

smoothSolver:  Solving for Ux, Initial residual = 5.75056e-06, Final residual = 3.73048e-07, No Iterations 2
smoothSolver:  Solving for Uy, Initial residual = 3.81758e-06, Final residual = 3.3338e-07, No Iterations 2
GAMG:  Solving for p, Initial residual = 1.74338e-05, Final residual = 1.37897e-06, No Iterations 2
time step continuity errors : sum local = 3.41869e-06, global = 4.81655e-08, cumulative = 0.0312826
smoothSolver:  Solving for omega, Initial residual = 1.07141e-06, Final residual = 7.11281e-08, No Iterations 1
smoothSolver:  Solving for k, Initial residual = 2.95336e-07, Final residual = 1.80283e-08, No Iterations 3
ExecutionTime = 22.3 s  ClockTime = 23 s

scalarTransport execute: age
smoothSolver:  Solving for age, Initial residual = 2.67385e-05, Final residual = 2.46514e-06, No Iterations 13

Time = 1991

smoothSolver:  Solving for Ux, Initial residual = 5.1679e-06, Final residual = 3.98883e-07, No Iterations 2
smoothSolver:  Solving for Uy, Initial residual = 5.53673e-05, Final residual = 9.03445e-07, No Iterations 1
GAMG:  Solving for p, Initial residual = 1.87911e-05, Final residual = 1.30902e-06, No Iterations 2
time step continuity errors : sum local = 3.24528e-06, global = 5.24674e-08, cumulative = 0.0312827
smoothSolver:  Solving for omega, Initial residual = 3.75185e-06, Final residual = 2.58407e-07, No Iterations 1
smoothSolver:  Solving for k, Initial residual = 3.52926e-07, Final residual = 3.31675e-08, No Iterations 2
ExecutionTime = 22.32 s  ClockTime = 23 s

scalarTransport execute: age
smoothSolver:  Solving for age, Initial residual = 2.95612e-05, Final residual = 2.75558e-06, No Iterations 13

Time = 1992

smoothSolver:  Solving for Ux, Initial residual = 0.0004242, Final residual = 9.31741e-07, No Iterations 1
smoothSolver:  Solving for Uy, Initial residual = 0.000186403, Final residual = 8.35197e-07, No Iterations 1
GAMG:  Solving for p, Initial residual = 2.0899e-05, Final residual = 1.82828e-06, No Iterations 2
time step continuity errors : sum local = 4.53266e-06, global = 5.41176e-08, cumulative = 0.0312827
smoothSolver:  Solving for omega, Initial residual = 6.33598e-06, Final residual = 2.97397e-07, No Iterations 1
smoothSolver:  Solving for k, Initial residual = 3.82752e-07, Final residual = 3.24392e-08, No Iterations 2
ExecutionTime = 22.33 s  ClockTime = 23 s

scalarTransport execute: age
smoothSolver:  Solving for age, Initial residual = 2.87243e-05, Final residual = 2.86217e-06, No Iterations 13

Time = 1993

smoothSolver:  Solving for Ux, Initial residual = 5.90631e-06, Final residual = 3.86866e-07, No Iterations 2
smoothSolver:  Solving for Uy, Initial residual = 9.23032e-06, Final residual = 4.11442e-07, No Iterations 2
GAMG:  Solving for p, Initial residual = 2.21664e-05, Final residual = 1.60077e-06, No Iterations 2
time step continuity errors : sum local = 3.96861e-06, global = 4.93287e-08, cumulative = 0.0312828
smoothSolver:  Solving for omega, Initial residual = 7.14664e-06, Final residual = 3.35933e-07, No Iterations 1
smoothSolver:  Solving for k, Initial residual = 3.19306e-07, Final residual = 1.69037e-08, No Iterations 3
ExecutionTime = 22.34 s  ClockTime = 23 s

scalarTransport execute: age
smoothSolver:  Solving for age, Initial residual = 2.90402e-05, Final residual = 2.88184e-06, No Iterations 13

Time = 1994

smoothSolver:  Solving for Ux, Initial residual = 5.24925e-06, Final residual = 3.71994e-07, No Iterations 2
smoothSolver:  Solving for Uy, Initial residual = 5.72614e-06, Final residual = 3.65331e-07, No Iterations 2
GAMG:  Solving for p, Initial residual = 1.70704e-05, Final residual = 1.08409e-06, No Iterations 2
time step continuity errors : sum local = 2.68767e-06, global = 3.70943e-08, cumulative = 0.0312828
smoothSolver:  Solving for omega, Initial residual = 5.11926e-06, Final residual = 2.71337e-07, No Iterations 1
smoothSolver:  Solving for k, Initial residual = 2.67378e-07, Final residual = 1.62719e-08, No Iterations 3
ExecutionTime = 22.35 s  ClockTime = 23 s

scalarTransport execute: age
smoothSolver:  Solving for age, Initial residual = 2.7335e-05, Final residual = 2.55491e-06, No Iterations 13

Time = 1995

smoothSolver:  Solving for Ux, Initial residual = 4.75319e-05, Final residual = 8.64716e-07, No Iterations 1
smoothSolver:  Solving for Uy, Initial residual = 8.33096e-06, Final residual = 6.48435e-07, No Iterations 1
GAMG:  Solving for p, Initial residual = 1.61326e-05, Final residual = 1.4e-06, No Iterations 2
time step continuity errors : sum local = 3.47087e-06, global = 2.82814e-08, cumulative = 0.0312828
smoothSolver:  Solving for omega, Initial residual = 3.56927e-06, Final residual = 2.25972e-07, No Iterations 1
smoothSolver:  Solving for k, Initial residual = 2.75474e-07, Final residual = 1.4728e-08, No Iterations 3
ExecutionTime = 22.36 s  ClockTime = 23 s

scalarTransport execute: age
smoothSolver:  Solving for age, Initial residual = 2.7803e-05, Final residual = 2.44818e-06, No Iterations 13

Time = 1996

smoothSolver:  Solving for Ux, Initial residual = 8.22434e-06, Final residual = 3.30074e-07, No Iterations 2
smoothSolver:  Solving for Uy, Initial residual = 6.66284e-06, Final residual = 3.17809e-07, No Iterations 2
GAMG:  Solving for p, Initial residual = 1.9173e-05, Final residual = 1.46051e-06, No Iterations 2
time step continuity errors : sum local = 3.62087e-06, global = 1.59463e-08, cumulative = 0.0312829
smoothSolver:  Solving for omega, Initial residual = 2.96949e-06, Final residual = 2.00835e-07, No Iterations 1
smoothSolver:  Solving for k, Initial residual = 2.93803e-07, Final residual = 1.48194e-08, No Iterations 3
ExecutionTime = 22.37 s  ClockTime = 23 s

scalarTransport execute: age
smoothSolver:  Solving for age, Initial residual = 2.90375e-05, Final residual = 2.52012e-06, No Iterations 13

Time = 1997

smoothSolver:  Solving for Ux, Initial residual = 5.87374e-06, Final residual = 4.52977e-07, No Iterations 2
smoothSolver:  Solving for Uy, Initial residual = 6.64423e-06, Final residual = 4.18421e-07, No Iterations 2
GAMG:  Solving for p, Initial residual = 2.5071e-05, Final residual = 1.73639e-06, No Iterations 2
time step continuity errors : sum local = 4.30486e-06, global = 1.60234e-09, cumulative = 0.0312829
smoothSolver:  Solving for omega, Initial residual = 2.97637e-06, Final residual = 1.72077e-07, No Iterations 1
smoothSolver:  Solving for k, Initial residual = 2.81736e-07, Final residual = 1.45674e-08, No Iterations 3
ExecutionTime = 22.38 s  ClockTime = 23 s

scalarTransport execute: age
smoothSolver:  Solving for age, Initial residual = 2.95499e-05, Final residual = 2.63157e-06, No Iterations 13

Time = 1998

smoothSolver:  Solving for Ux, Initial residual = 6.67165e-06, Final residual = 3.96623e-07, No Iterations 2
smoothSolver:  Solving for Uy, Initial residual = 6.53883e-06, Final residual = 3.26875e-07, No Iterations 2
GAMG:  Solving for p, Initial residual = 1.8674e-05, Final residual = 1.41644e-06, No Iterations 2
time step continuity errors : sum local = 3.51162e-06, global = -1.08679e-08, cumulative = 0.0312828
smoothSolver:  Solving for omega, Initial residual = 1.71216e-06, Final residual = 1.07513e-07, No Iterations 1
smoothSolver:  Solving for k, Initial residual = 2.50422e-07, Final residual = 1.39793e-08, No Iterations 3
ExecutionTime = 22.39 s  ClockTime = 23 s

scalarTransport execute: age
smoothSolver:  Solving for age, Initial residual = 2.88932e-05, Final residual = 2.80449e-06, No Iterations 13

Time = 1999

smoothSolver:  Solving for Ux, Initial residual = 7.27871e-06, Final residual = 3.33711e-07, No Iterations 2
smoothSolver:  Solving for Uy, Initial residual = 8.39248e-06, Final residual = 3.64009e-07, No Iterations 2
GAMG:  Solving for p, Initial residual = 2.04912e-05, Final residual = 1.22681e-06, No Iterations 2
time step continuity errors : sum local = 3.04147e-06, global = -2.02323e-08, cumulative = 0.0312828
smoothSolver:  Solving for omega, Initial residual = 3.42908e-06, Final residual = 2.7742e-07, No Iterations 1
smoothSolver:  Solving for k, Initial residual = 2.99941e-07, Final residual = 1.49672e-08, No Iterations 3
ExecutionTime = 22.41 s  ClockTime = 23 s

scalarTransport execute: age
smoothSolver:  Solving for age, Initial residual = 2.90844e-05, Final residual = 2.54668e-06, No Iterations 14

Time = 2000

smoothSolver:  Solving for Ux, Initial residual = 4.24184e-06, Final residual = 3.52387e-07, No Iterations 2
smoothSolver:  Solving for Uy, Initial residual = 8.01654e-06, Final residual = 3.76335e-07, No Iterations 2
GAMG:  Solving for p, Initial residual = 1.60039e-05, Final residual = 9.78927e-07, No Iterations 2
time step continuity errors : sum local = 2.42693e-06, global = -2.51028e-08, cumulative = 0.0312828
smoothSolver:  Solving for omega, Initial residual = 2.18944e-06, Final residual = 1.49763e-07, No Iterations 1
smoothSolver:  Solving for k, Initial residual = 2.70215e-07, Final residual = 1.52263e-08, No Iterations 3
ExecutionTime = 22.44 s  ClockTime = 23 s

scalarTransport execute: age
smoothSolver:  Solving for age, Initial residual = 2.93728e-05, Final residual = 2.88427e-06, No Iterations 13

End

