/*---------------------------------------------------------------------------*\
| =========                 |                                                 |
| \\      /  F ield         | OpenFOAM: The Open Source CFD Toolbox           |
|  \\    /   O peration     | Version:  v2012                                 |
|   \\  /    A nd           | Website:  www.openfoam.com                      |
|    \\/     M anipulation  |                                                 |
\*---------------------------------------------------------------------------*/
Build  : _7bdb509494-20201222 OPENFOAM=2012
Arch   : "LSB;label=32;scalar=64"
Exec   : simpleFoam
Date   : Feb 23 2023
Time   : 20:04:51
Host   : johnsDesktop
PID    : 12772
I/O    : uncollated
Case   : /home/john/of_runs/cases/dbl_0_35_8-09200_8
nProcs : 1
trapFpe: Floating point exception trapping enabled (FOAM_SIGFPE).
fileModificationChecking : Monitoring run-time modified files using timeStampMaster (fileModificationSkew 5, maxFileModificationPolls 20)
allowSystemOperations : Allowing user-supplied system call operations

// * * * * * * * * * * * * * * * * * * * * * * * * * * * * * * * * * * * * * //
Create time

Create mesh for time = 0


SIMPLE: convergence criteria
    field p	 tolerance 1e-06
    field U	 tolerance 1e-06
    field "(k|epsilon|omega|f|v2|age)"	 tolerance 1e-05

Reading field p

Reading field U

Reading/calculating face flux field phi

Selecting incompressible transport model Newtonian
Selecting turbulence model type RAS
Selecting RAS turbulence model kOmegaSST
Selecting patchDistMethod meshWave
RAS
{
    RASModel        kOmegaSST;
    turbulence      on;
    printCoeffs     on;
    alphaK1         0.85;
    alphaK2         1;
    alphaOmega1     0.5;
    alphaOmega2     0.856;
    gamma1          0.555556;
    gamma2          0.44;
    beta1           0.075;
    beta2           0.0828;
    betaStar        0.09;
    a1              0.31;
    b1              1;
    c1              10;
    F3              false;
    decayControl    false;
    kInf            0;
    omegaInf        0;
}

No MRF models present

No finite volume options present

Starting time loop

Selecting finite volume options type scalarSemiImplicitSource
    Source: unitySource
    - selecting all cells
    - selected 6556 cell(s) with volume 0.03165
Time = 1

smoothSolver:  Solving for Ux, Initial residual = 0, Final residual = 0, No Iterations 0
smoothSolver:  Solving for Uy, Initial residual = 1, Final residual = 0.0653139, No Iterations 2
GAMG:  Solving for p, Initial residual = 1, Final residual = 0.0589192, No Iterations 6
time step continuity errors : sum local = 0.00372317, global = -0.00103365, cumulative = -0.00103365
smoothSolver:  Solving for omega, Initial residual = 0.258197, Final residual = 0.012684, No Iterations 3
smoothSolver:  Solving for k, Initial residual = 1, Final residual = 0.0813018, No Iterations 3
ExecutionTime = 0.07 s  ClockTime = 0 s

scalarTransport execute: age
smoothSolver:  Solving for age, Initial residual = 1, Final residual = 0.0837148, No Iterations 6

Time = 2

smoothSolver:  Solving for Ux, Initial residual = 0.578776, Final residual = 0.0481547, No Iterations 6
smoothSolver:  Solving for Uy, Initial residual = 0.275835, Final residual = 0.0267646, No Iterations 5
GAMG:  Solving for p, Initial residual = 0.0562713, Final residual = 0.00506742, No Iterations 3
time step continuity errors : sum local = 0.0575477, global = 0.00345994, cumulative = 0.00242629
smoothSolver:  Solving for omega, Initial residual = 0.249961, Final residual = 0.0237097, No Iterations 3
smoothSolver:  Solving for k, Initial residual = 0.607576, Final residual = 0.0551888, No Iterations 4
ExecutionTime = 0.08 s  ClockTime = 0 s

scalarTransport execute: age
smoothSolver:  Solving for age, Initial residual = 0.593257, Final residual = 0.0580695, No Iterations 7

Time = 3

smoothSolver:  Solving for Ux, Initial residual = 0.21589, Final residual = 0.0142734, No Iterations 6
smoothSolver:  Solving for Uy, Initial residual = 0.106391, Final residual = 0.00926783, No Iterations 5
GAMG:  Solving for p, Initial residual = 0.054651, Final residual = 0.00330248, No Iterations 3
time step continuity errors : sum local = 0.0177929, global = 0.001394, cumulative = 0.00382029
smoothSolver:  Solving for omega, Initial residual = 0.239791, Final residual = 0.0223065, No Iterations 4
smoothSolver:  Solving for k, Initial residual = 0.50613, Final residual = 0.0369009, No Iterations 5
ExecutionTime = 0.09 s  ClockTime = 0 s

scalarTransport execute: age
smoothSolver:  Solving for age, Initial residual = 0.39856, Final residual = 0.0389929, No Iterations 8

Time = 4

smoothSolver:  Solving for Ux, Initial residual = 0.107665, Final residual = 0.0104014, No Iterations 4
smoothSolver:  Solving for Uy, Initial residual = 0.0524687, Final residual = 0.00506386, No Iterations 4
GAMG:  Solving for p, Initial residual = 0.0871991, Final residual = 0.00684962, No Iterations 2
time step continuity errors : sum local = 0.0191082, global = 0.00273112, cumulative = 0.00655141
smoothSolver:  Solving for omega, Initial residual = 0.139278, Final residual = 0.00929278, No Iterations 5
smoothSolver:  Solving for k, Initial residual = 0.434979, Final residual = 0.0358373, No Iterations 5
ExecutionTime = 0.09 s  ClockTime = 0 s

scalarTransport execute: age
smoothSolver:  Solving for age, Initial residual = 0.282119, Final residual = 0.0253068, No Iterations 9

Time = 5

smoothSolver:  Solving for Ux, Initial residual = 0.0575363, Final residual = 0.00484973, No Iterations 5
smoothSolver:  Solving for Uy, Initial residual = 0.0328794, Final residual = 0.00232224, No Iterations 5
GAMG:  Solving for p, Initial residual = 0.0700866, Final residual = 0.00479539, No Iterations 2
time step continuity errors : sum local = 0.0139004, global = 0.00117007, cumulative = 0.00772148
smoothSolver:  Solving for omega, Initial residual = 0.0961915, Final residual = 0.00710611, No Iterations 5
smoothSolver:  Solving for k, Initial residual = 0.341768, Final residual = 0.0304914, No Iterations 5
ExecutionTime = 0.12 s  ClockTime = 0 s

scalarTransport execute: age
smoothSolver:  Solving for age, Initial residual = 0.218779, Final residual = 0.0189095, No Iterations 10

Time = 6

smoothSolver:  Solving for Ux, Initial residual = 0.0478774, Final residual = 0.0045641, No Iterations 5
smoothSolver:  Solving for Uy, Initial residual = 0.0280102, Final residual = 0.00211349, No Iterations 5
GAMG:  Solving for p, Initial residual = 0.0607228, Final residual = 0.00212583, No Iterations 2
time step continuity errors : sum local = 0.00594745, global = 0.000275758, cumulative = 0.00799723
smoothSolver:  Solving for omega, Initial residual = 0.074119, Final residual = 0.00585563, No Iterations 5
smoothSolver:  Solving for k, Initial residual = 0.273482, Final residual = 0.0258995, No Iterations 5
ExecutionTime = 0.13 s  ClockTime = 0 s

scalarTransport execute: age
smoothSolver:  Solving for age, Initial residual = 0.178928, Final residual = 0.0169211, No Iterations 10

Time = 7

smoothSolver:  Solving for Ux, Initial residual = 0.0409247, Final residual = 0.00402649, No Iterations 5
smoothSolver:  Solving for Uy, Initial residual = 0.0231033, Final residual = 0.00184283, No Iterations 5
GAMG:  Solving for p, Initial residual = 0.0493478, Final residual = 0.00186993, No Iterations 2
time step continuity errors : sum local = 0.00529064, global = -0.000296686, cumulative = 0.00770055
smoothSolver:  Solving for omega, Initial residual = 0.0565862, Final residual = 0.00477713, No Iterations 5
smoothSolver:  Solving for k, Initial residual = 0.226251, Final residual = 0.0223633, No Iterations 5
ExecutionTime = 0.13 s  ClockTime = 0 s

scalarTransport execute: age
smoothSolver:  Solving for age, Initial residual = 0.151625, Final residual = 0.013042, No Iterations 11

Time = 8

smoothSolver:  Solving for Ux, Initial residual = 0.0357432, Final residual = 0.00355478, No Iterations 5
smoothSolver:  Solving for Uy, Initial residual = 0.0206645, Final residual = 0.00172437, No Iterations 5
GAMG:  Solving for p, Initial residual = 0.0413724, Final residual = 0.00213707, No Iterations 2
time step continuity errors : sum local = 0.00610695, global = -0.00060936, cumulative = 0.00709119
smoothSolver:  Solving for omega, Initial residual = 0.0450198, Final residual = 0.00394425, No Iterations 5
smoothSolver:  Solving for k, Initial residual = 0.192255, Final residual = 0.0124702, No Iterations 6
ExecutionTime = 0.14 s  ClockTime = 0 s

scalarTransport execute: age
smoothSolver:  Solving for age, Initial residual = 0.131011, Final residual = 0.0117442, No Iterations 11

Time = 9

smoothSolver:  Solving for Ux, Initial residual = 0.0315908, Final residual = 0.00306489, No Iterations 5
smoothSolver:  Solving for Uy, Initial residual = 0.019585, Final residual = 0.00167553, No Iterations 5
GAMG:  Solving for p, Initial residual = 0.0351206, Final residual = 0.00200899, No Iterations 2
time step continuity errors : sum local = 0.00593237, global = -0.000617784, cumulative = 0.0064734
smoothSolver:  Solving for omega, Initial residual = 0.0369934, Final residual = 0.00332948, No Iterations 5
smoothSolver:  Solving for k, Initial residual = 0.166704, Final residual = 0.0111461, No Iterations 6
ExecutionTime = 0.17 s  ClockTime = 0 s

scalarTransport execute: age
smoothSolver:  Solving for age, Initial residual = 0.114645, Final residual = 0.0104999, No Iterations 11

Time = 10

smoothSolver:  Solving for Ux, Initial residual = 0.0295692, Final residual = 0.00286832, No Iterations 5
smoothSolver:  Solving for Uy, Initial residual = 0.0189398, Final residual = 0.00165586, No Iterations 5
GAMG:  Solving for p, Initial residual = 0.0301111, Final residual = 0.000965789, No Iterations 2
time step continuity errors : sum local = 0.00292218, global = -0.000602418, cumulative = 0.00587099
smoothSolver:  Solving for omega, Initial residual = 0.0307014, Final residual = 0.00284025, No Iterations 5
smoothSolver:  Solving for k, Initial residual = 0.146757, Final residual = 0.0100601, No Iterations 6
ExecutionTime = 0.18 s  ClockTime = 0 s

scalarTransport execute: age
smoothSolver:  Solving for age, Initial residual = 0.100446, Final residual = 0.00937474, No Iterations 11

Time = 11

smoothSolver:  Solving for Ux, Initial residual = 0.0273511, Final residual = 0.00270276, No Iterations 5
smoothSolver:  Solving for Uy, Initial residual = 0.0180503, Final residual = 0.00161772, No Iterations 5
GAMG:  Solving for p, Initial residual = 0.0269258, Final residual = 0.000845335, No Iterations 2
time step continuity errors : sum local = 0.00255945, global = -0.000500676, cumulative = 0.00537031
smoothSolver:  Solving for omega, Initial residual = 0.0258632, Final residual = 0.00244194, No Iterations 5
smoothSolver:  Solving for k, Initial residual = 0.130759, Final residual = 0.00914674, No Iterations 6
ExecutionTime = 0.19 s  ClockTime = 0 s

scalarTransport execute: age
smoothSolver:  Solving for age, Initial residual = 0.0876708, Final residual = 0.00844578, No Iterations 11

Time = 12

smoothSolver:  Solving for Ux, Initial residual = 0.025839, Final residual = 0.00258121, No Iterations 5
smoothSolver:  Solving for Uy, Initial residual = 0.0173793, Final residual = 0.00159756, No Iterations 5
GAMG:  Solving for p, Initial residual = 0.0250807, Final residual = 0.000916613, No Iterations 2
time step continuity errors : sum local = 0.00276143, global = -0.000369769, cumulative = 0.00500054
smoothSolver:  Solving for omega, Initial residual = 0.0220654, Final residual = 0.00211751, No Iterations 5
smoothSolver:  Solving for k, Initial residual = 0.117695, Final residual = 0.00837, No Iterations 6
ExecutionTime = 0.2 s  ClockTime = 0 s

scalarTransport execute: age
smoothSolver:  Solving for age, Initial residual = 0.0765325, Final residual = 0.00760709, No Iterations 11

Time = 13

smoothSolver:  Solving for Ux, Initial residual = 0.024698, Final residual = 0.00162077, No Iterations 6
smoothSolver:  Solving for Uy, Initial residual = 0.0169441, Final residual = 0.00157662, No Iterations 5
GAMG:  Solving for p, Initial residual = 0.0236269, Final residual = 0.000938838, No Iterations 2
time step continuity errors : sum local = 0.00281022, global = -0.000223672, cumulative = 0.00477687
smoothSolver:  Solving for omega, Initial residual = 0.0190464, Final residual = 0.00185116, No Iterations 5
smoothSolver:  Solving for k, Initial residual = 0.106844, Final residual = 0.00770387, No Iterations 6
ExecutionTime = 0.22 s  ClockTime = 0 s

scalarTransport execute: age
smoothSolver:  Solving for age, Initial residual = 0.0666516, Final residual = 0.00580636, No Iterations 12

Time = 14

smoothSolver:  Solving for Ux, Initial residual = 0.023486, Final residual = 0.00154101, No Iterations 6
smoothSolver:  Solving for Uy, Initial residual = 0.0166557, Final residual = 0.0015643, No Iterations 5
GAMG:  Solving for p, Initial residual = 0.0225436, Final residual = 0.000919569, No Iterations 2
time step continuity errors : sum local = 0.00273093, global = -5.86816e-05, cumulative = 0.00471819
smoothSolver:  Solving for omega, Initial residual = 0.0165865, Final residual = 0.00162964, No Iterations 5
smoothSolver:  Solving for k, Initial residual = 0.0976897, Final residual = 0.00712619, No Iterations 6
ExecutionTime = 0.23 s  ClockTime = 0 s

scalarTransport execute: age
smoothSolver:  Solving for age, Initial residual = 0.0581614, Final residual = 0.00517561, No Iterations 12

Time = 15

smoothSolver:  Solving for Ux, Initial residual = 0.022389, Final residual = 0.00223131, No Iterations 5
smoothSolver:  Solving for Uy, Initial residual = 0.0164463, Final residual = 0.00154946, No Iterations 5
GAMG:  Solving for p, Initial residual = 0.0215482, Final residual = 0.000881321, No Iterations 2
time step continuity errors : sum local = 0.00259487, global = 0.000115581, cumulative = 0.00483377
smoothSolver:  Solving for omega, Initial residual = 0.0145577, Final residual = 0.00144294, No Iterations 5
smoothSolver:  Solving for k, Initial residual = 0.0898831, Final residual = 0.00662186, No Iterations 6
ExecutionTime = 0.24 s  ClockTime = 0 s

scalarTransport execute: age
smoothSolver:  Solving for age, Initial residual = 0.0508625, Final residual = 0.00462151, No Iterations 12

Time = 16

smoothSolver:  Solving for Ux, Initial residual = 0.021511, Final residual = 0.00213851, No Iterations 5
smoothSolver:  Solving for Uy, Initial residual = 0.0161403, Final residual = 0.00151907, No Iterations 5
GAMG:  Solving for p, Initial residual = 0.020574, Final residual = 0.000828253, No Iterations 2
time step continuity errors : sum local = 0.00241705, global = 0.000268272, cumulative = 0.00510204
smoothSolver:  Solving for omega, Initial residual = 0.0128816, Final residual = 0.00128525, No Iterations 5
smoothSolver:  Solving for k, Initial residual = 0.0831439, Final residual = 0.00617695, No Iterations 6
ExecutionTime = 0.25 s  ClockTime = 0 s

scalarTransport execute: age
smoothSolver:  Solving for age, Initial residual = 0.0445098, Final residual = 0.00411907, No Iterations 12

Time = 17

smoothSolver:  Solving for Ux, Initial residual = 0.0206558, Final residual = 0.0020524, No Iterations 5
smoothSolver:  Solving for Uy, Initial residual = 0.015758, Final residual = 0.00148223, No Iterations 5
GAMG:  Solving for p, Initial residual = 0.0196375, Final residual = 0.000797723, No Iterations 2
time step continuity errors : sum local = 0.00230489, global = 0.000390338, cumulative = 0.00549238
smoothSolver:  Solving for omega, Initial residual = 0.0115006, Final residual = 0.000737771, No Iterations 6
smoothSolver:  Solving for k, Initial residual = 0.0771187, Final residual = 0.00577144, No Iterations 6
ExecutionTime = 0.27 s  ClockTime = 0 s

scalarTransport execute: age
smoothSolver:  Solving for age, Initial residual = 0.0391263, Final residual = 0.00366714, No Iterations 12

Time = 18

smoothSolver:  Solving for Ux, Initial residual = 0.0198138, Final residual = 0.00196832, No Iterations 5
smoothSolver:  Solving for Uy, Initial residual = 0.0153034, Final residual = 0.00143969, No Iterations 5
GAMG:  Solving for p, Initial residual = 0.0187569, Final residual = 0.000800007, No Iterations 2
time step continuity errors : sum local = 0.00228945, global = 0.000464169, cumulative = 0.00595655
smoothSolver:  Solving for omega, Initial residual = 0.0102534, Final residual = 0.000661119, No Iterations 6
smoothSolver:  Solving for k, Initial residual = 0.0717483, Final residual = 0.00540486, No Iterations 6
ExecutionTime = 0.28 s  ClockTime = 0 s

scalarTransport execute: age
smoothSolver:  Solving for age, Initial residual = 0.0346038, Final residual = 0.00325642, No Iterations 12

Time = 19

smoothSolver:  Solving for Ux, Initial residual = 0.0190483, Final residual = 0.00189495, No Iterations 5
smoothSolver:  Solving for Uy, Initial residual = 0.014802, Final residual = 0.00139384, No Iterations 5
GAMG:  Solving for p, Initial residual = 0.017825, Final residual = 0.000805623, No Iterations 2
time step continuity errors : sum local = 0.00228276, global = 0.000482302, cumulative = 0.00643885
smoothSolver:  Solving for omega, Initial residual = 0.00921154, Final residual = 0.000595779, No Iterations 6
smoothSolver:  Solving for k, Initial residual = 0.0670188, Final residual = 0.00507658, No Iterations 6
ExecutionTime = 0.29 s  ClockTime = 0 s

scalarTransport execute: age
smoothSolver:  Solving for age, Initial residual = 0.0307739, Final residual = 0.00288628, No Iterations 12

Time = 20

smoothSolver:  Solving for Ux, Initial residual = 0.0183562, Final residual = 0.00183419, No Iterations 5
smoothSolver:  Solving for Uy, Initial residual = 0.0142562, Final residual = 0.00134577, No Iterations 5
GAMG:  Solving for p, Initial residual = 0.0169394, Final residual = 0.000755712, No Iterations 2
time step continuity errors : sum local = 0.00211812, global = 0.000462497, cumulative = 0.00690135
smoothSolver:  Solving for omega, Initial residual = 0.00831906, Final residual = 0.000539557, No Iterations 6
smoothSolver:  Solving for k, Initial residual = 0.0628076, Final residual = 0.0047802, No Iterations 6
ExecutionTime = 0.3 s  ClockTime = 0 s

scalarTransport execute: age
smoothSolver:  Solving for age, Initial residual = 0.0275118, Final residual = 0.00254866, No Iterations 12

Time = 21

smoothSolver:  Solving for Ux, Initial residual = 0.0177658, Final residual = 0.00116784, No Iterations 6
smoothSolver:  Solving for Uy, Initial residual = 0.0136992, Final residual = 0.00129714, No Iterations 5
GAMG:  Solving for p, Initial residual = 0.0162228, Final residual = 0.000682028, No Iterations 2
time step continuity errors : sum local = 0.00189139, global = 0.000427902, cumulative = 0.00732925
smoothSolver:  Solving for omega, Initial residual = 0.00755979, Final residual = 0.000490687, No Iterations 6
smoothSolver:  Solving for k, Initial residual = 0.0590369, Final residual = 0.00451136, No Iterations 6
ExecutionTime = 0.32 s  ClockTime = 0 s

scalarTransport execute: age
smoothSolver:  Solving for age, Initial residual = 0.0247024, Final residual = 0.00220678, No Iterations 12

Time = 22

smoothSolver:  Solving for Ux, Initial residual = 0.0171545, Final residual = 0.00113257, No Iterations 6
smoothSolver:  Solving for Uy, Initial residual = 0.0132636, Final residual = 0.0012576, No Iterations 5
GAMG:  Solving for p, Initial residual = 0.0157646, Final residual = 0.000621929, No Iterations 2
time step continuity errors : sum local = 0.00170822, global = 0.000391757, cumulative = 0.00772101
smoothSolver:  Solving for omega, Initial residual = 0.00690803, Final residual = 0.000447989, No Iterations 6
smoothSolver:  Solving for k, Initial residual = 0.0556306, Final residual = 0.00426536, No Iterations 6
ExecutionTime = 0.33 s  ClockTime = 0 s

scalarTransport execute: age
smoothSolver:  Solving for age, Initial residual = 0.0221856, Final residual = 0.00189948, No Iterations 12

Time = 23

smoothSolver:  Solving for Ux, Initial residual = 0.0166897, Final residual = 0.0011079, No Iterations 6
smoothSolver:  Solving for Uy, Initial residual = 0.0127981, Final residual = 0.00121204, No Iterations 5
GAMG:  Solving for p, Initial residual = 0.0156713, Final residual = 0.000585375, No Iterations 2
time step continuity errors : sum local = 0.00159358, global = 0.000356994, cumulative = 0.008078
smoothSolver:  Solving for omega, Initial residual = 0.00633968, Final residual = 0.000410645, No Iterations 6
smoothSolver:  Solving for k, Initial residual = 0.0525251, Final residual = 0.00403895, No Iterations 6
ExecutionTime = 0.34 s  ClockTime = 1 s

scalarTransport execute: age
smoothSolver:  Solving for age, Initial residual = 0.0201154, Final residual = 0.00191841, No Iterations 11

Time = 24

smoothSolver:  Solving for Ux, Initial residual = 0.0163576, Final residual = 0.00109128, No Iterations 6
smoothSolver:  Solving for Uy, Initial residual = 0.0123326, Final residual = 0.00116342, No Iterations 5
GAMG:  Solving for p, Initial residual = 0.0157818, Final residual = 0.000572112, No Iterations 2
time step continuity errors : sum local = 0.00154757, global = 0.00032641, cumulative = 0.00840441
smoothSolver:  Solving for omega, Initial residual = 0.00584397, Final residual = 0.000377545, No Iterations 6
smoothSolver:  Solving for k, Initial residual = 0.0496818, Final residual = 0.00382984, No Iterations 6
ExecutionTime = 0.36 s  ClockTime = 1 s

scalarTransport execute: age
smoothSolver:  Solving for age, Initial residual = 0.0185672, Final residual = 0.00165246, No Iterations 11

Time = 25

smoothSolver:  Solving for Ux, Initial residual = 0.0161467, Final residual = 0.00107979, No Iterations 6
smoothSolver:  Solving for Uy, Initial residual = 0.0118523, Final residual = 0.00111228, No Iterations 5
GAMG:  Solving for p, Initial residual = 0.0157061, Final residual = 0.000583698, No Iterations 2
time step continuity errors : sum local = 0.0015631, global = 0.000301595, cumulative = 0.008706
smoothSolver:  Solving for omega, Initial residual = 0.00540507, Final residual = 0.000540001, No Iterations 5
smoothSolver:  Solving for k, Initial residual = 0.0471186, Final residual = 0.00364006, No Iterations 6
ExecutionTime = 0.37 s  ClockTime = 1 s

scalarTransport execute: age
smoothSolver:  Solving for age, Initial residual = 0.0170151, Final residual = 0.00169913, No Iterations 10

Time = 26

smoothSolver:  Solving for Ux, Initial residual = 0.0160435, Final residual = 0.0010728, No Iterations 6
smoothSolver:  Solving for Uy, Initial residual = 0.0113666, Final residual = 0.0010599, No Iterations 5
GAMG:  Solving for p, Initial residual = 0.0155974, Final residual = 0.000596052, No Iterations 2
time step continuity errors : sum local = 0.00158525, global = 0.00028294, cumulative = 0.00898894
smoothSolver:  Solving for omega, Initial residual = 0.00503997, Final residual = 0.000501487, No Iterations 5
smoothSolver:  Solving for k, Initial residual = 0.0447729, Final residual = 0.00346507, No Iterations 6
ExecutionTime = 0.38 s  ClockTime = 1 s

scalarTransport execute: age
smoothSolver:  Solving for age, Initial residual = 0.0158454, Final residual = 0.00151338, No Iterations 10

Time = 27

smoothSolver:  Solving for Ux, Initial residual = 0.0160247, Final residual = 0.00106897, No Iterations 6
smoothSolver:  Solving for Uy, Initial residual = 0.0108541, Final residual = 0.00100625, No Iterations 5
GAMG:  Solving for p, Initial residual = 0.0153934, Final residual = 0.000608371, No Iterations 2
time step continuity errors : sum local = 0.00160803, global = 0.000269568, cumulative = 0.00925851
smoothSolver:  Solving for omega, Initial residual = 0.00470953, Final residual = 0.000466398, No Iterations 5
smoothSolver:  Solving for k, Initial residual = 0.0425811, Final residual = 0.00330117, No Iterations 6
ExecutionTime = 0.39 s  ClockTime = 1 s

scalarTransport execute: age
smoothSolver:  Solving for age, Initial residual = 0.0149681, Final residual = 0.00137953, No Iterations 10

Time = 28

smoothSolver:  Solving for Ux, Initial residual = 0.0160484, Final residual = 0.0010679, No Iterations 6
smoothSolver:  Solving for Uy, Initial residual = 0.0103202, Final residual = 0.000951289, No Iterations 5
GAMG:  Solving for p, Initial residual = 0.0150389, Final residual = 0.000608622, No Iterations 2
time step continuity errors : sum local = 0.00159993, global = 0.000251932, cumulative = 0.00951044
smoothSolver:  Solving for omega, Initial residual = 0.00442014, Final residual = 0.000434214, No Iterations 5
smoothSolver:  Solving for k, Initial residual = 0.0405338, Final residual = 0.00314753, No Iterations 6
ExecutionTime = 0.41 s  ClockTime = 1 s

scalarTransport execute: age
smoothSolver:  Solving for age, Initial residual = 0.0142755, Final residual = 0.00128932, No Iterations 10

Time = 29

smoothSolver:  Solving for Ux, Initial residual = 0.0161062, Final residual = 0.00107001, No Iterations 6
smoothSolver:  Solving for Uy, Initial residual = 0.00977567, Final residual = 0.000896073, No Iterations 5
GAMG:  Solving for p, Initial residual = 0.0146923, Final residual = 0.000606972, No Iterations 2
time step continuity errors : sum local = 0.00158852, global = 0.000237788, cumulative = 0.00974823
smoothSolver:  Solving for omega, Initial residual = 0.0041437, Final residual = 0.000404762, No Iterations 5
smoothSolver:  Solving for k, Initial residual = 0.0386125, Final residual = 0.00300357, No Iterations 6
ExecutionTime = 0.42 s  ClockTime = 1 s

scalarTransport execute: age
smoothSolver:  Solving for age, Initial residual = 0.013733, Final residual = 0.00124969, No Iterations 10

Time = 30

smoothSolver:  Solving for Ux, Initial residual = 0.0161657, Final residual = 0.00107296, No Iterations 6
smoothSolver:  Solving for Uy, Initial residual = 0.00922384, Final residual = 0.000842569, No Iterations 5
GAMG:  Solving for p, Initial residual = 0.0142877, Final residual = 0.000601424, No Iterations 2
time step continuity errors : sum local = 0.00156874, global = 0.000226105, cumulative = 0.00997434
smoothSolver:  Solving for omega, Initial residual = 0.00389747, Final residual = 0.000377691, No Iterations 5
smoothSolver:  Solving for k, Initial residual = 0.0368112, Final residual = 0.00286876, No Iterations 6
ExecutionTime = 0.43 s  ClockTime = 1 s

scalarTransport execute: age
smoothSolver:  Solving for age, Initial residual = 0.0134239, Final residual = 0.00125876, No Iterations 10

Time = 31

smoothSolver:  Solving for Ux, Initial residual = 0.0162204, Final residual = 0.00107608, No Iterations 6
smoothSolver:  Solving for Uy, Initial residual = 0.00869678, Final residual = 0.000791806, No Iterations 5
GAMG:  Solving for p, Initial residual = 0.0139112, Final residual = 0.000604057, No Iterations 2
time step continuity errors : sum local = 0.00157371, global = 0.000217278, cumulative = 0.0101916
smoothSolver:  Solving for omega, Initial residual = 0.00367285, Final residual = 0.000352988, No Iterations 5
smoothSolver:  Solving for k, Initial residual = 0.0351282, Final residual = 0.00274256, No Iterations 6
ExecutionTime = 0.44 s  ClockTime = 1 s

scalarTransport execute: age
smoothSolver:  Solving for age, Initial residual = 0.0131923, Final residual = 0.00131036, No Iterations 10

Time = 32

smoothSolver:  Solving for Ux, Initial residual = 0.0162546, Final residual = 0.00107884, No Iterations 6
smoothSolver:  Solving for Uy, Initial residual = 0.00824199, Final residual = 0.000745532, No Iterations 5
GAMG:  Solving for p, Initial residual = 0.0136824, Final residual = 0.000624839, No Iterations 2
time step continuity errors : sum local = 0.00162774, global = 0.000211141, cumulative = 0.0104028
smoothSolver:  Solving for omega, Initial residual = 0.00347352, Final residual = 0.00033045, No Iterations 5
smoothSolver:  Solving for k, Initial residual = 0.0335591, Final residual = 0.00262437, No Iterations 6
ExecutionTime = 0.46 s  ClockTime = 1 s

scalarTransport execute: age
smoothSolver:  Solving for age, Initial residual = 0.0131114, Final residual = 0.00119753, No Iterations 11

Time = 33

smoothSolver:  Solving for Ux, Initial residual = 0.0162987, Final residual = 0.00108103, No Iterations 6
smoothSolver:  Solving for Uy, Initial residual = 0.00783776, Final residual = 0.00070447, No Iterations 5
GAMG:  Solving for p, Initial residual = 0.0134695, Final residual = 0.000664651, No Iterations 2
time step continuity errors : sum local = 0.00173381, global = 0.000213451, cumulative = 0.0106162
smoothSolver:  Solving for omega, Initial residual = 0.00328786, Final residual = 0.000309813, No Iterations 5
smoothSolver:  Solving for k, Initial residual = 0.032098, Final residual = 0.00251373, No Iterations 6
ExecutionTime = 0.47 s  ClockTime = 1 s

scalarTransport execute: age
smoothSolver:  Solving for age, Initial residual = 0.0131625, Final residual = 0.00126186, No Iterations 11

Time = 34

smoothSolver:  Solving for Ux, Initial residual = 0.0163695, Final residual = 0.00108119, No Iterations 6
smoothSolver:  Solving for Uy, Initial residual = 0.00747647, Final residual = 0.000669504, No Iterations 5
GAMG:  Solving for p, Initial residual = 0.0133072, Final residual = 0.000705885, No Iterations 2
time step continuity errors : sum local = 0.00184501, global = 0.000217548, cumulative = 0.0108338
smoothSolver:  Solving for omega, Initial residual = 0.00311389, Final residual = 0.000290854, No Iterations 5
smoothSolver:  Solving for k, Initial residual = 0.0307409, Final residual = 0.00241023, No Iterations 6
ExecutionTime = 0.48 s  ClockTime = 1 s

scalarTransport execute: age
smoothSolver:  Solving for age, Initial residual = 0.0132229, Final residual = 0.00114598, No Iterations 12

Time = 35

smoothSolver:  Solving for Ux, Initial residual = 0.0164311, Final residual = 0.00108134, No Iterations 6
smoothSolver:  Solving for Uy, Initial residual = 0.0071688, Final residual = 0.000641001, No Iterations 5
GAMG:  Solving for p, Initial residual = 0.0132242, Final residual = 0.000749322, No Iterations 2
time step continuity errors : sum local = 0.00195667, global = 0.000223221, cumulative = 0.011057
smoothSolver:  Solving for omega, Initial residual = 0.00295836, Final residual = 0.000273465, No Iterations 5
smoothSolver:  Solving for k, Initial residual = 0.029482, Final residual = 0.00231323, No Iterations 6
ExecutionTime = 0.49 s  ClockTime = 1 s

scalarTransport execute: age
smoothSolver:  Solving for age, Initial residual = 0.0134199, Final residual = 0.00119123, No Iterations 12

Time = 36

smoothSolver:  Solving for Ux, Initial residual = 0.0164646, Final residual = 0.00108155, No Iterations 6
smoothSolver:  Solving for Uy, Initial residual = 0.00692919, Final residual = 0.000619057, No Iterations 5
GAMG:  Solving for p, Initial residual = 0.013151, Final residual = 0.000791991, No Iterations 2
time step continuity errors : sum local = 0.00206654, global = 0.000229202, cumulative = 0.0112862
smoothSolver:  Solving for omega, Initial residual = 0.00281808, Final residual = 0.000257554, No Iterations 5
smoothSolver:  Solving for k, Initial residual = 0.0283141, Final residual = 0.00222235, No Iterations 6
ExecutionTime = 0.51 s  ClockTime = 1 s

scalarTransport execute: age
smoothSolver:  Solving for age, Initial residual = 0.0136709, Final residual = 0.00123346, No Iterations 12

Time = 37

smoothSolver:  Solving for Ux, Initial residual = 0.0164884, Final residual = 0.00108168, No Iterations 6
smoothSolver:  Solving for Uy, Initial residual = 0.00675243, Final residual = 0.000604841, No Iterations 5
GAMG:  Solving for p, Initial residual = 0.0130957, Final residual = 0.000827463, No Iterations 2
time step continuity errors : sum local = 0.00216399, global = 0.000234013, cumulative = 0.0115202
smoothSolver:  Solving for omega, Initial residual = 0.00269345, Final residual = 0.000242829, No Iterations 5
smoothSolver:  Solving for k, Initial residual = 0.027226, Final residual = 0.00213688, No Iterations 6
ExecutionTime = 0.52 s  ClockTime = 1 s

scalarTransport execute: age
smoothSolver:  Solving for age, Initial residual = 0.0139914, Final residual = 0.00124911, No Iterations 15

Time = 38

smoothSolver:  Solving for Ux, Initial residual = 0.0164959, Final residual = 0.00108203, No Iterations 6
smoothSolver:  Solving for Uy, Initial residual = 0.00665227, Final residual = 0.000599363, No Iterations 5
GAMG:  Solving for p, Initial residual = 0.0133978, Final residual = 0.000860886, No Iterations 2
time step continuity errors : sum local = 0.00226288, global = 0.00023722, cumulative = 0.0117574
smoothSolver:  Solving for omega, Initial residual = 0.00259119, Final residual = 0.000229354, No Iterations 5
smoothSolver:  Solving for k, Initial residual = 0.0262154, Final residual = 0.00205673, No Iterations 6
ExecutionTime = 0.53 s  ClockTime = 1 s

scalarTransport execute: age
smoothSolver:  Solving for age, Initial residual = 0.0165156, Final residual = 0.00117615, No Iterations 26

Time = 39

smoothSolver:  Solving for Ux, Initial residual = 0.0165054, Final residual = 0.00108307, No Iterations 6
smoothSolver:  Solving for Uy, Initial residual = 0.00661891, Final residual = 0.000601477, No Iterations 5
GAMG:  Solving for p, Initial residual = 0.0134722, Final residual = 0.000885113, No Iterations 2
time step continuity errors : sum local = 0.0023288, global = 0.000238363, cumulative = 0.0119958
smoothSolver:  Solving for omega, Initial residual = 0.00250284, Final residual = 0.000217187, No Iterations 5
smoothSolver:  Solving for k, Initial residual = 0.025276, Final residual = 0.00198142, No Iterations 6
ExecutionTime = 0.54 s  ClockTime = 1 s

scalarTransport execute: age
smoothSolver:  Solving for age, Initial residual = 0.0541154, Final residual = 0.00498256, No Iterations 12

Time = 40

smoothSolver:  Solving for Ux, Initial residual = 0.016522, Final residual = 0.00108437, No Iterations 6
smoothSolver:  Solving for Uy, Initial residual = 0.00661974, Final residual = 0.000610004, No Iterations 5
GAMG:  Solving for p, Initial residual = 0.0134635, Final residual = 0.000897229, No Iterations 2
time step continuity errors : sum local = 0.00237247, global = 0.000238311, cumulative = 0.0122341
smoothSolver:  Solving for omega, Initial residual = 0.00241499, Final residual = 0.000206208, No Iterations 5
smoothSolver:  Solving for k, Initial residual = 0.0243976, Final residual = 0.00191052, No Iterations 6
ExecutionTime = 0.56 s  ClockTime = 1 s

scalarTransport execute: age
smoothSolver:  Solving for age, Initial residual = 0.0528065, Final residual = 0.00465947, No Iterations 12

Time = 41

smoothSolver:  Solving for Ux, Initial residual = 0.016546, Final residual = 0.00108607, No Iterations 6
smoothSolver:  Solving for Uy, Initial residual = 0.00664758, Final residual = 0.00062323, No Iterations 5
GAMG:  Solving for p, Initial residual = 0.0141043, Final residual = 0.000891596, No Iterations 2
time step continuity errors : sum local = 0.00240566, global = 0.000236615, cumulative = 0.0124707
smoothSolver:  Solving for omega, Initial residual = 0.00233911, Final residual = 0.000195735, No Iterations 5
smoothSolver:  Solving for k, Initial residual = 0.0235725, Final residual = 0.00184347, No Iterations 6
ExecutionTime = 0.57 s  ClockTime = 1 s

scalarTransport execute: age
smoothSolver:  Solving for age, Initial residual = 0.0507822, Final residual = 0.00461761, No Iterations 10

Time = 42

smoothSolver:  Solving for Ux, Initial residual = 0.0165486, Final residual = 0.00108687, No Iterations 6
smoothSolver:  Solving for Uy, Initial residual = 0.00674138, Final residual = 0.000639963, No Iterations 5
GAMG:  Solving for p, Initial residual = 0.013964, Final residual = 0.000870749, No Iterations 2
time step continuity errors : sum local = 0.00232535, global = 0.000235306, cumulative = 0.012706
smoothSolver:  Solving for omega, Initial residual = 0.00224366, Final residual = 0.000185852, No Iterations 5
smoothSolver:  Solving for k, Initial residual = 0.0227848, Final residual = 0.00178006, No Iterations 6
ExecutionTime = 0.58 s  ClockTime = 1 s

scalarTransport execute: age
smoothSolver:  Solving for age, Initial residual = 0.0437506, Final residual = 0.00415574, No Iterations 9

Time = 43

smoothSolver:  Solving for Ux, Initial residual = 0.0165361, Final residual = 0.00108616, No Iterations 6
smoothSolver:  Solving for Uy, Initial residual = 0.00688238, Final residual = 0.000661917, No Iterations 5
GAMG:  Solving for p, Initial residual = 0.0141591, Final residual = 0.000884566, No Iterations 2
time step continuity errors : sum local = 0.00232896, global = 0.000235488, cumulative = 0.0129415
smoothSolver:  Solving for omega, Initial residual = 0.00214285, Final residual = 0.000176414, No Iterations 5
smoothSolver:  Solving for k, Initial residual = 0.0220473, Final residual = 0.00171995, No Iterations 6
ExecutionTime = 0.59 s  ClockTime = 1 s

scalarTransport execute: age
smoothSolver:  Solving for age, Initial residual = 0.0428836, Final residual = 0.00421091, No Iterations 9

Time = 44

smoothSolver:  Solving for Ux, Initial residual = 0.0165141, Final residual = 0.00108499, No Iterations 6
smoothSolver:  Solving for Uy, Initial residual = 0.00707169, Final residual = 0.000687366, No Iterations 5
GAMG:  Solving for p, Initial residual = 0.0141113, Final residual = 0.000850094, No Iterations 2
time step continuity errors : sum local = 0.00220481, global = 0.000234967, cumulative = 0.0131765
smoothSolver:  Solving for omega, Initial residual = 0.00209563, Final residual = 0.00016661, No Iterations 5
smoothSolver:  Solving for k, Initial residual = 0.0213309, Final residual = 0.00166305, No Iterations 6
ExecutionTime = 0.61 s  ClockTime = 1 s

scalarTransport execute: age
smoothSolver:  Solving for age, Initial residual = 0.0439504, Final residual = 0.00420107, No Iterations 10

Time = 45

smoothSolver:  Solving for Ux, Initial residual = 0.0164521, Final residual = 0.00108403, No Iterations 6
smoothSolver:  Solving for Uy, Initial residual = 0.00731104, Final residual = 0.000717995, No Iterations 5
GAMG:  Solving for p, Initial residual = 0.0139831, Final residual = 0.000882343, No Iterations 2
time step continuity errors : sum local = 0.00227591, global = 0.000238624, cumulative = 0.0134151
smoothSolver:  Solving for omega, Initial residual = 0.00197991, Final residual = 0.000158221, No Iterations 5
smoothSolver:  Solving for k, Initial residual = 0.0206654, Final residual = 0.00160902, No Iterations 6
ExecutionTime = 0.62 s  ClockTime = 1 s

scalarTransport execute: age
smoothSolver:  Solving for age, Initial residual = 0.0458675, Final residual = 0.00421506, No Iterations 10

Time = 46

smoothSolver:  Solving for Ux, Initial residual = 0.016364, Final residual = 0.00108297, No Iterations 6
smoothSolver:  Solving for Uy, Initial residual = 0.00754171, Final residual = 0.000749472, No Iterations 5
GAMG:  Solving for p, Initial residual = 0.0138571, Final residual = 0.000922662, No Iterations 2
time step continuity errors : sum local = 0.00237108, global = 0.000249923, cumulative = 0.013665
smoothSolver:  Solving for omega, Initial residual = 0.0019074, Final residual = 0.000150528, No Iterations 5
smoothSolver:  Solving for k, Initial residual = 0.0200427, Final residual = 0.00155789, No Iterations 6
ExecutionTime = 0.63 s  ClockTime = 1 s

scalarTransport execute: age
smoothSolver:  Solving for age, Initial residual = 0.0448015, Final residual = 0.00400775, No Iterations 10

Time = 47

smoothSolver:  Solving for Ux, Initial residual = 0.0162245, Final residual = 0.0010799, No Iterations 6
smoothSolver:  Solving for Uy, Initial residual = 0.00778612, Final residual = 0.000509196, No Iterations 6
GAMG:  Solving for p, Initial residual = 0.0135977, Final residual = 0.000956325, No Iterations 2
time step continuity errors : sum local = 0.00245004, global = 0.000260442, cumulative = 0.0139255
smoothSolver:  Solving for omega, Initial residual = 0.00183126, Final residual = 0.000143305, No Iterations 5
smoothSolver:  Solving for k, Initial residual = 0.0194579, Final residual = 0.00150965, No Iterations 6
ExecutionTime = 0.64 s  ClockTime = 1 s

scalarTransport execute: age
smoothSolver:  Solving for age, Initial residual = 0.0414282, Final residual = 0.0037796, No Iterations 11

Time = 48

smoothSolver:  Solving for Ux, Initial residual = 0.0161224, Final residual = 0.00107796, No Iterations 6
smoothSolver:  Solving for Uy, Initial residual = 0.00796744, Final residual = 0.000524682, No Iterations 6
GAMG:  Solving for p, Initial residual = 0.0132514, Final residual = 0.000993672, No Iterations 2
time step continuity errors : sum local = 0.00254296, global = 0.000269622, cumulative = 0.0141951
smoothSolver:  Solving for omega, Initial residual = 0.00176234, Final residual = 0.000136585, No Iterations 5
smoothSolver:  Solving for k, Initial residual = 0.0189007, Final residual = 0.00146379, No Iterations 6
ExecutionTime = 0.66 s  ClockTime = 1 s

scalarTransport execute: age
smoothSolver:  Solving for age, Initial residual = 0.037134, Final residual = 0.00330744, No Iterations 11

Time = 49

smoothSolver:  Solving for Ux, Initial residual = 0.0160298, Final residual = 0.00107355, No Iterations 6
smoothSolver:  Solving for Uy, Initial residual = 0.00815542, Final residual = 0.000540737, No Iterations 6
GAMG:  Solving for p, Initial residual = 0.0125237, Final residual = 0.000986929, No Iterations 2
time step continuity errors : sum local = 0.00251116, global = 0.000275369, cumulative = 0.0144704
smoothSolver:  Solving for omega, Initial residual = 0.00168273, Final residual = 0.000130544, No Iterations 5
smoothSolver:  Solving for k, Initial residual = 0.0183851, Final residual = 0.00142054, No Iterations 6
ExecutionTime = 0.67 s  ClockTime = 1 s

scalarTransport execute: age
smoothSolver:  Solving for age, Initial residual = 0.0337618, Final residual = 0.00295104, No Iterations 11

Time = 50

smoothSolver:  Solving for Ux, Initial residual = 0.015868, Final residual = 0.00106857, No Iterations 6
smoothSolver:  Solving for Uy, Initial residual = 0.00834181, Final residual = 0.00055797, No Iterations 6
GAMG:  Solving for p, Initial residual = 0.0119245, Final residual = 0.000986131, No Iterations 2
time step continuity errors : sum local = 0.00249728, global = 0.000278139, cumulative = 0.0147486
smoothSolver:  Solving for omega, Initial residual = 0.00162324, Final residual = 0.000125024, No Iterations 5
smoothSolver:  Solving for k, Initial residual = 0.0178961, Final residual = 0.00137947, No Iterations 6
ExecutionTime = 0.68 s  ClockTime = 1 s

scalarTransport execute: age
smoothSolver:  Solving for age, Initial residual = 0.0313316, Final residual = 0.00282866, No Iterations 11

Time = 51

smoothSolver:  Solving for Ux, Initial residual = 0.0157328, Final residual = 0.00106361, No Iterations 6
smoothSolver:  Solving for Uy, Initial residual = 0.00851096, Final residual = 0.000574924, No Iterations 6
GAMG:  Solving for p, Initial residual = 0.011432, Final residual = 0.000979626, No Iterations 2
time step continuity errors : sum local = 0.00247209, global = 0.000277948, cumulative = 0.0150265
smoothSolver:  Solving for omega, Initial residual = 0.00158076, Final residual = 0.000120173, No Iterations 5
smoothSolver:  Solving for k, Initial residual = 0.017427, Final residual = 0.00134029, No Iterations 6
ExecutionTime = 0.69 s  ClockTime = 1 s

scalarTransport execute: age
smoothSolver:  Solving for age, Initial residual = 0.0307752, Final residual = 0.00278408, No Iterations 11

Time = 52

smoothSolver:  Solving for Ux, Initial residual = 0.0155749, Final residual = 0.00105793, No Iterations 6
smoothSolver:  Solving for Uy, Initial residual = 0.00867806, Final residual = 0.000590688, No Iterations 6
GAMG:  Solving for p, Initial residual = 0.011175, Final residual = 0.000969259, No Iterations 2
time step continuity errors : sum local = 0.00243783, global = 0.000275347, cumulative = 0.0153019
smoothSolver:  Solving for omega, Initial residual = 0.00153623, Final residual = 0.000115892, No Iterations 5
smoothSolver:  Solving for k, Initial residual = 0.0169765, Final residual = 0.00130282, No Iterations 6
ExecutionTime = 0.71 s  ClockTime = 1 s

scalarTransport execute: age
smoothSolver:  Solving for age, Initial residual = 0.0298571, Final residual = 0.00265479, No Iterations 11

Time = 53

smoothSolver:  Solving for Ux, Initial residual = 0.0154562, Final residual = 0.00105164, No Iterations 6
smoothSolver:  Solving for Uy, Initial residual = 0.00881478, Final residual = 0.000604549, No Iterations 6
GAMG:  Solving for p, Initial residual = 0.011075, Final residual = 0.000954913, No Iterations 2
time step continuity errors : sum local = 0.00239242, global = 0.000270816, cumulative = 0.0155727
smoothSolver:  Solving for omega, Initial residual = 0.00149375, Final residual = 0.000111833, No Iterations 5
smoothSolver:  Solving for k, Initial residual = 0.0165485, Final residual = 0.00126704, No Iterations 6
ExecutionTime = 0.72 s  ClockTime = 1 s

scalarTransport execute: age
smoothSolver:  Solving for age, Initial residual = 0.0279059, Final residual = 0.0023938, No Iterations 11

Time = 54

smoothSolver:  Solving for Ux, Initial residual = 0.0153307, Final residual = 0.00104523, No Iterations 6
smoothSolver:  Solving for Uy, Initial residual = 0.00890936, Final residual = 0.000616245, No Iterations 6
GAMG:  Solving for p, Initial residual = 0.0109619, Final residual = 0.000938626, No Iterations 2
time step continuity errors : sum local = 0.00234525, global = 0.000264599, cumulative = 0.0158373
smoothSolver:  Solving for omega, Initial residual = 0.00145305, Final residual = 0.000107976, No Iterations 5
smoothSolver:  Solving for k, Initial residual = 0.0161341, Final residual = 0.00123281, No Iterations 6
ExecutionTime = 0.73 s  ClockTime = 1 s

scalarTransport execute: age
smoothSolver:  Solving for age, Initial residual = 0.0250884, Final residual = 0.00239903, No Iterations 10

Time = 55

smoothSolver:  Solving for Ux, Initial residual = 0.0152312, Final residual = 0.00103868, No Iterations 6
smoothSolver:  Solving for Uy, Initial residual = 0.008967, Final residual = 0.000625706, No Iterations 6
GAMG:  Solving for p, Initial residual = 0.0107633, Final residual = 0.000914832, No Iterations 2
time step continuity errors : sum local = 0.00227967, global = 0.000257272, cumulative = 0.0160946
smoothSolver:  Solving for omega, Initial residual = 0.00141463, Final residual = 0.000104282, No Iterations 5
smoothSolver:  Solving for k, Initial residual = 0.0157351, Final residual = 0.00120008, No Iterations 6
ExecutionTime = 0.74 s  ClockTime = 1 s

scalarTransport execute: age
smoothSolver:  Solving for age, Initial residual = 0.022502, Final residual = 0.00207274, No Iterations 10

Time = 56

smoothSolver:  Solving for Ux, Initial residual = 0.0151743, Final residual = 0.00103279, No Iterations 6
smoothSolver:  Solving for Uy, Initial residual = 0.00899846, Final residual = 0.000632959, No Iterations 6
GAMG:  Solving for p, Initial residual = 0.0105559, Final residual = 0.00089035, No Iterations 2
time step continuity errors : sum local = 0.00221281, global = 0.000241503, cumulative = 0.0163361
smoothSolver:  Solving for omega, Initial residual = 0.00137645, Final residual = 0.000100835, No Iterations 5
smoothSolver:  Solving for k, Initial residual = 0.0153475, Final residual = 0.00116863, No Iterations 6
ExecutionTime = 0.76 s  ClockTime = 1 s

scalarTransport execute: age
smoothSolver:  Solving for age, Initial residual = 0.0205203, Final residual = 0.00186906, No Iterations 10

Time = 57

smoothSolver:  Solving for Ux, Initial residual = 0.0151836, Final residual = 0.00103045, No Iterations 6
smoothSolver:  Solving for Uy, Initial residual = 0.00899785, Final residual = 0.000637807, No Iterations 6
GAMG:  Solving for p, Initial residual = 0.0105064, Final residual = 0.000866588, No Iterations 2
time step continuity errors : sum local = 0.00214823, global = 0.000223581, cumulative = 0.0165596
smoothSolver:  Solving for omega, Initial residual = 0.00134116, Final residual = 9.76599e-05, No Iterations 5
smoothSolver:  Solving for k, Initial residual = 0.0149732, Final residual = 0.00113849, No Iterations 6
ExecutionTime = 0.77 s  ClockTime = 1 s

scalarTransport execute: age
smoothSolver:  Solving for age, Initial residual = 0.0189902, Final residual = 0.00182908, No Iterations 10

Time = 58

smoothSolver:  Solving for Ux, Initial residual = 0.0151797, Final residual = 0.00102768, No Iterations 6
smoothSolver:  Solving for Uy, Initial residual = 0.00898657, Final residual = 0.000641597, No Iterations 6
GAMG:  Solving for p, Initial residual = 0.0104089, Final residual = 0.00085442, No Iterations 2
time step continuity errors : sum local = 0.00211362, global = 0.000203232, cumulative = 0.0167629
smoothSolver:  Solving for omega, Initial residual = 0.00130433, Final residual = 9.47118e-05, No Iterations 5
smoothSolver:  Solving for k, Initial residual = 0.0146085, Final residual = 0.00110934, No Iterations 6
ExecutionTime = 0.78 s  ClockTime = 1 s

scalarTransport execute: age
smoothSolver:  Solving for age, Initial residual = 0.0177688, Final residual = 0.00158723, No Iterations 11

Time = 59

smoothSolver:  Solving for Ux, Initial residual = 0.0151602, Final residual = 0.00102335, No Iterations 6
smoothSolver:  Solving for Uy, Initial residual = 0.00897201, Final residual = 0.000645146, No Iterations 6
GAMG:  Solving for p, Initial residual = 0.0103952, Final residual = 0.00084947, No Iterations 2
time step continuity errors : sum local = 0.00209685, global = 0.000181797, cumulative = 0.0169447
smoothSolver:  Solving for omega, Initial residual = 0.00127014, Final residual = 9.19796e-05, No Iterations 5
smoothSolver:  Solving for k, Initial residual = 0.0142559, Final residual = 0.00108135, No Iterations 6
ExecutionTime = 0.79 s  ClockTime = 1 s

scalarTransport execute: age
smoothSolver:  Solving for age, Initial residual = 0.017051, Final residual = 0.00158672, No Iterations 11

Time = 60

smoothSolver:  Solving for Ux, Initial residual = 0.0151188, Final residual = 0.00101759, No Iterations 6
smoothSolver:  Solving for Uy, Initial residual = 0.00895344, Final residual = 0.000648035, No Iterations 6
GAMG:  Solving for p, Initial residual = 0.0105426, Final residual = 0.000842337, No Iterations 2
time step continuity errors : sum local = 0.00207256, global = 0.000174349, cumulative = 0.017119
smoothSolver:  Solving for omega, Initial residual = 0.00124141, Final residual = 8.9552e-05, No Iterations 5
smoothSolver:  Solving for k, Initial residual = 0.0139172, Final residual = 0.00105444, No Iterations 6
ExecutionTime = 0.81 s  ClockTime = 1 s

scalarTransport execute: age
smoothSolver:  Solving for age, Initial residual = 0.016701, Final residual = 0.00156879, No Iterations 11

Time = 61

smoothSolver:  Solving for Ux, Initial residual = 0.0150163, Final residual = 0.00100829, No Iterations 6
smoothSolver:  Solving for Uy, Initial residual = 0.00895369, Final residual = 0.000650515, No Iterations 6
GAMG:  Solving for p, Initial residual = 0.0107863, Final residual = 0.000844245, No Iterations 2
time step continuity errors : sum local = 0.00206808, global = 0.000167367, cumulative = 0.0172864
smoothSolver:  Solving for omega, Initial residual = 0.00121687, Final residual = 8.73329e-05, No Iterations 5
smoothSolver:  Solving for k, Initial residual = 0.0135912, Final residual = 0.0010285, No Iterations 6
ExecutionTime = 0.82 s  ClockTime = 1 s

scalarTransport execute: age
smoothSolver:  Solving for age, Initial residual = 0.0164301, Final residual = 0.00158032, No Iterations 11

Time = 62

smoothSolver:  Solving for Ux, Initial residual = 0.0148905, Final residual = 0.000998422, No Iterations 6
smoothSolver:  Solving for Uy, Initial residual = 0.008936, Final residual = 0.000650223, No Iterations 6
GAMG:  Solving for p, Initial residual = 0.0109531, Final residual = 0.000837534, No Iterations 2
time step continuity errors : sum local = 0.00203975, global = 0.000162686, cumulative = 0.0174491
smoothSolver:  Solving for omega, Initial residual = 0.00119351, Final residual = 8.53485e-05, No Iterations 5
smoothSolver:  Solving for k, Initial residual = 0.0132794, Final residual = 0.00100326, No Iterations 6
ExecutionTime = 0.83 s  ClockTime = 1 s

scalarTransport execute: age
smoothSolver:  Solving for age, Initial residual = 0.0163395, Final residual = 0.00142228, No Iterations 12

Time = 63

smoothSolver:  Solving for Ux, Initial residual = 0.0147468, Final residual = 0.000987821, No Iterations 6
smoothSolver:  Solving for Uy, Initial residual = 0.00890421, Final residual = 0.000648252, No Iterations 6
GAMG:  Solving for p, Initial residual = 0.0111067, Final residual = 0.000827189, No Iterations 2
time step continuity errors : sum local = 0.00200414, global = 0.000160538, cumulative = 0.0176096
smoothSolver:  Solving for omega, Initial residual = 0.00117301, Final residual = 8.34783e-05, No Iterations 5
smoothSolver:  Solving for k, Initial residual = 0.0129773, Final residual = 0.000978568, No Iterations 6
ExecutionTime = 0.84 s  ClockTime = 1 s

scalarTransport execute: age
smoothSolver:  Solving for age, Initial residual = 0.0162071, Final residual = 0.00150349, No Iterations 12

Time = 64

smoothSolver:  Solving for Ux, Initial residual = 0.0145837, Final residual = 0.00097585, No Iterations 6
smoothSolver:  Solving for Uy, Initial residual = 0.00886184, Final residual = 0.000645004, No Iterations 6
GAMG:  Solving for p, Initial residual = 0.0112559, Final residual = 0.000816834, No Iterations 2
time step continuity errors : sum local = 0.00196766, global = 0.000161741, cumulative = 0.0177714
smoothSolver:  Solving for omega, Initial residual = 0.00115317, Final residual = 8.16829e-05, No Iterations 5
smoothSolver:  Solving for k, Initial residual = 0.0126861, Final residual = 0.000954402, No Iterations 6
ExecutionTime = 0.86 s  ClockTime = 1 s

scalarTransport execute: age
smoothSolver:  Solving for age, Initial residual = 0.0161577, Final residual = 0.00159715, No Iterations 12

Time = 65

smoothSolver:  Solving for Ux, Initial residual = 0.0143858, Final residual = 0.000962656, No Iterations 6
smoothSolver:  Solving for Uy, Initial residual = 0.00880716, Final residual = 0.000640126, No Iterations 6
GAMG:  Solving for p, Initial residual = 0.0113164, Final residual = 0.000802025, No Iterations 2
time step continuity errors : sum local = 0.00191783, global = 0.000166067, cumulative = 0.0179374
smoothSolver:  Solving for omega, Initial residual = 0.00113128, Final residual = 7.98836e-05, No Iterations 5
smoothSolver:  Solving for k, Initial residual = 0.012405, Final residual = 0.000930636, No Iterations 6
ExecutionTime = 0.87 s  ClockTime = 1 s

scalarTransport execute: age
smoothSolver:  Solving for age, Initial residual = 0.0161596, Final residual = 0.0014589, No Iterations 13

Time = 66

smoothSolver:  Solving for Ux, Initial residual = 0.0141736, Final residual = 0.000948002, No Iterations 6
smoothSolver:  Solving for Uy, Initial residual = 0.00873453, Final residual = 0.000633403, No Iterations 6
GAMG:  Solving for p, Initial residual = 0.0113296, Final residual = 0.000786573, No Iterations 2
time step continuity errors : sum local = 0.00186594, global = 0.000172757, cumulative = 0.0181102
smoothSolver:  Solving for omega, Initial residual = 0.00111084, Final residual = 7.80109e-05, No Iterations 5
smoothSolver:  Solving for k, Initial residual = 0.0121309, Final residual = 0.000907146, No Iterations 6
ExecutionTime = 0.88 s  ClockTime = 1 s

scalarTransport execute: age
smoothSolver:  Solving for age, Initial residual = 0.0161158, Final residual = 0.00151098, No Iterations 13

Time = 67

smoothSolver:  Solving for Ux, Initial residual = 0.0139322, Final residual = 0.000931737, No Iterations 6
smoothSolver:  Solving for Uy, Initial residual = 0.00864711, Final residual = 0.000624732, No Iterations 6
GAMG:  Solving for p, Initial residual = 0.0112993, Final residual = 0.00077027, No Iterations 2
time step continuity errors : sum local = 0.00181288, global = 0.000181183, cumulative = 0.0182914
smoothSolver:  Solving for omega, Initial residual = 0.0010896, Final residual = 7.60488e-05, No Iterations 5
smoothSolver:  Solving for k, Initial residual = 0.011858, Final residual = 0.000883852, No Iterations 6
ExecutionTime = 0.9 s  ClockTime = 1 s

scalarTransport execute: age
smoothSolver:  Solving for age, Initial residual = 0.0161068, Final residual = 0.00155368, No Iterations 13

Time = 68

smoothSolver:  Solving for Ux, Initial residual = 0.0136745, Final residual = 0.000914054, No Iterations 6
smoothSolver:  Solving for Uy, Initial residual = 0.00852953, Final residual = 0.000613953, No Iterations 6
GAMG:  Solving for p, Initial residual = 0.011218, Final residual = 0.000744985, No Iterations 2
time step continuity errors : sum local = 0.00174016, global = 0.000172563, cumulative = 0.0184639
smoothSolver:  Solving for omega, Initial residual = 0.00107022, Final residual = 7.395e-05, No Iterations 5
smoothSolver:  Solving for k, Initial residual = 0.0115855, Final residual = 0.000860752, No Iterations 6
ExecutionTime = 0.91 s  ClockTime = 1 s

scalarTransport execute: age
smoothSolver:  Solving for age, Initial residual = 0.0160019, Final residual = 0.00160013, No Iterations 13

Time = 69

smoothSolver:  Solving for Ux, Initial residual = 0.0134392, Final residual = 0.000897694, No Iterations 6
smoothSolver:  Solving for Uy, Initial residual = 0.00837148, Final residual = 0.000599736, No Iterations 6
GAMG:  Solving for p, Initial residual = 0.0110786, Final residual = 0.000728827, No Iterations 2
time step continuity errors : sum local = 0.0016878, global = 0.000187036, cumulative = 0.018651
smoothSolver:  Solving for omega, Initial residual = 0.00103749, Final residual = 7.16391e-05, No Iterations 5
smoothSolver:  Solving for k, Initial residual = 0.0113133, Final residual = 0.000837754, No Iterations 6
ExecutionTime = 0.92 s  ClockTime = 1 s

scalarTransport execute: age
smoothSolver:  Solving for age, Initial residual = 0.0157838, Final residual = 0.00142708, No Iterations 14

Time = 70

smoothSolver:  Solving for Ux, Initial residual = 0.013131, Final residual = 0.000875868, No Iterations 6
smoothSolver:  Solving for Uy, Initial residual = 0.00822243, Final residual = 0.00058714, No Iterations 6
GAMG:  Solving for p, Initial residual = 0.0109328, Final residual = 0.000726037, No Iterations 2
time step continuity errors : sum local = 0.00166969, global = 0.000198472, cumulative = 0.0188494
smoothSolver:  Solving for omega, Initial residual = 0.00101602, Final residual = 6.92269e-05, No Iterations 5
smoothSolver:  Solving for k, Initial residual = 0.0110396, Final residual = 0.000814951, No Iterations 6
ExecutionTime = 0.93 s  ClockTime = 1 s

scalarTransport execute: age
smoothSolver:  Solving for age, Initial residual = 0.0156838, Final residual = 0.00144349, No Iterations 14

Time = 71

smoothSolver:  Solving for Ux, Initial residual = 0.0128118, Final residual = 0.000852882, No Iterations 6
smoothSolver:  Solving for Uy, Initial residual = 0.0080288, Final residual = 0.000570645, No Iterations 6
GAMG:  Solving for p, Initial residual = 0.0107122, Final residual = 0.000687739, No Iterations 2
time step continuity errors : sum local = 0.00157058, global = 0.000185512, cumulative = 0.0190349
smoothSolver:  Solving for omega, Initial residual = 0.000986034, Final residual = 6.6702e-05, No Iterations 5
smoothSolver:  Solving for k, Initial residual = 0.0107667, Final residual = 0.000792459, No Iterations 6
ExecutionTime = 0.95 s  ClockTime = 1 s

scalarTransport execute: age
smoothSolver:  Solving for age, Initial residual = 0.015341, Final residual = 0.00142114, No Iterations 14

Time = 72

smoothSolver:  Solving for Ux, Initial residual = 0.0125154, Final residual = 0.000832384, No Iterations 6
smoothSolver:  Solving for Uy, Initial residual = 0.00779151, Final residual = 0.000550716, No Iterations 6
GAMG:  Solving for p, Initial residual = 0.0104087, Final residual = 0.000662209, No Iterations 2
time step continuity errors : sum local = 0.0015005, global = 0.000177053, cumulative = 0.019212
smoothSolver:  Solving for omega, Initial residual = 0.000955061, Final residual = 6.42964e-05, No Iterations 5
smoothSolver:  Solving for k, Initial residual = 0.0104947, Final residual = 0.000770131, No Iterations 6
ExecutionTime = 0.96 s  ClockTime = 1 s

scalarTransport execute: age
smoothSolver:  Solving for age, Initial residual = 0.0147431, Final residual = 0.00136989, No Iterations 14

Time = 73

smoothSolver:  Solving for Ux, Initial residual = 0.0121689, Final residual = 0.000808597, No Iterations 6
smoothSolver:  Solving for Uy, Initial residual = 0.00756888, Final residual = 0.000532617, No Iterations 6
GAMG:  Solving for p, Initial residual = 0.0101799, Final residual = 0.000674935, No Iterations 2
time step continuity errors : sum local = 0.00151946, global = 0.000169055, cumulative = 0.0193811
smoothSolver:  Solving for omega, Initial residual = 0.000926555, Final residual = 6.21046e-05, No Iterations 5
smoothSolver:  Solving for k, Initial residual = 0.010221, Final residual = 0.000747805, No Iterations 6
ExecutionTime = 0.97 s  ClockTime = 1 s

scalarTransport execute: age
smoothSolver:  Solving for age, Initial residual = 0.0139062, Final residual = 0.00129066, No Iterations 14

Time = 74

smoothSolver:  Solving for Ux, Initial residual = 0.0117988, Final residual = 0.000782176, No Iterations 6
smoothSolver:  Solving for Uy, Initial residual = 0.00733109, Final residual = 0.000513005, No Iterations 6
GAMG:  Solving for p, Initial residual = 0.00990548, Final residual = 0.000704367, No Iterations 2
time step continuity errors : sum local = 0.00157255, global = 0.000160949, cumulative = 0.019542
smoothSolver:  Solving for omega, Initial residual = 0.000900418, Final residual = 5.9969e-05, No Iterations 5
smoothSolver:  Solving for k, Initial residual = 0.00994391, Final residual = 0.000725524, No Iterations 6
ExecutionTime = 0.99 s  ClockTime = 1 s

scalarTransport execute: age
smoothSolver:  Solving for age, Initial residual = 0.0130288, Final residual = 0.00119911, No Iterations 14

Time = 75

smoothSolver:  Solving for Ux, Initial residual = 0.0114167, Final residual = 0.000754474, No Iterations 6
smoothSolver:  Solving for Uy, Initial residual = 0.00706737, Final residual = 0.000491615, No Iterations 6
GAMG:  Solving for p, Initial residual = 0.00961878, Final residual = 0.000718394, No Iterations 2
time step continuity errors : sum local = 0.00159262, global = 0.000153225, cumulative = 0.0196952
smoothSolver:  Solving for omega, Initial residual = 0.000875145, Final residual = 5.79201e-05, No Iterations 5
smoothSolver:  Solving for k, Initial residual = 0.00966608, Final residual = 0.000703359, No Iterations 6
ExecutionTime = 1 s  ClockTime = 1 s

scalarTransport execute: age
smoothSolver:  Solving for age, Initial residual = 0.0122142, Final residual = 0.00108501, No Iterations 14

Time = 76

smoothSolver:  Solving for Ux, Initial residual = 0.0110308, Final residual = 0.000726809, No Iterations 6
smoothSolver:  Solving for Uy, Initial residual = 0.00679204, Final residual = 0.000468938, No Iterations 6
GAMG:  Solving for p, Initial residual = 0.009365, Final residual = 0.000715327, No Iterations 2
time step continuity errors : sum local = 0.00157693, global = 0.000146331, cumulative = 0.0198416
smoothSolver:  Solving for omega, Initial residual = 0.000849736, Final residual = 5.6024e-05, No Iterations 5
smoothSolver:  Solving for k, Initial residual = 0.00938473, Final residual = 0.000681181, No Iterations 6
ExecutionTime = 1.01 s  ClockTime = 1 s

scalarTransport execute: age
smoothSolver:  Solving for age, Initial residual = 0.0114281, Final residual = 0.00113562, No Iterations 13

Time = 77

smoothSolver:  Solving for Ux, Initial residual = 0.0106314, Final residual = 0.000699278, No Iterations 6
smoothSolver:  Solving for Uy, Initial residual = 0.00651823, Final residual = 0.000445742, No Iterations 6
GAMG:  Solving for p, Initial residual = 0.00915821, Final residual = 0.000699217, No Iterations 2
time step continuity errors : sum local = 0.00153477, global = 0.000140681, cumulative = 0.0199822
smoothSolver:  Solving for omega, Initial residual = 0.000822628, Final residual = 5.42151e-05, No Iterations 5
smoothSolver:  Solving for k, Initial residual = 0.0091015, Final residual = 0.000658964, No Iterations 6
ExecutionTime = 1.02 s  ClockTime = 1 s

scalarTransport execute: age
smoothSolver:  Solving for age, Initial residual = 0.010779, Final residual = 0.0010416, No Iterations 13

Time = 78

smoothSolver:  Solving for Ux, Initial residual = 0.0102248, Final residual = 0.000671597, No Iterations 6
smoothSolver:  Solving for Uy, Initial residual = 0.00624799, Final residual = 0.000422378, No Iterations 6
GAMG:  Solving for p, Initial residual = 0.00888769, Final residual = 0.000673646, No Iterations 2
time step continuity errors : sum local = 0.00147401, global = 0.000136592, cumulative = 0.0201188
smoothSolver:  Solving for omega, Initial residual = 0.00079605, Final residual = 5.23727e-05, No Iterations 5
smoothSolver:  Solving for k, Initial residual = 0.00881556, Final residual = 0.000636597, No Iterations 6
ExecutionTime = 1.04 s  ClockTime = 1 s

scalarTransport execute: age
smoothSolver:  Solving for age, Initial residual = 0.0100849, Final residual = 0.000951162, No Iterations 13

Time = 79

smoothSolver:  Solving for Ux, Initial residual = 0.00980478, Final residual = 0.000643554, No Iterations 6
smoothSolver:  Solving for Uy, Initial residual = 0.00598128, Final residual = 0.000398788, No Iterations 6
GAMG:  Solving for p, Initial residual = 0.00859658, Final residual = 0.000641625, No Iterations 2
time step continuity errors : sum local = 0.00140094, global = 0.00013399, cumulative = 0.0202528
smoothSolver:  Solving for omega, Initial residual = 0.000776025, Final residual = 5.05203e-05, No Iterations 5
smoothSolver:  Solving for k, Initial residual = 0.00852826, Final residual = 0.000614125, No Iterations 6
ExecutionTime = 1.05 s  ClockTime = 1 s

scalarTransport execute: age
smoothSolver:  Solving for age, Initial residual = 0.00945843, Final residual = 0.000856231, No Iterations 13

Time = 80

smoothSolver:  Solving for Ux, Initial residual = 0.00937764, Final residual = 0.000615554, No Iterations 6
smoothSolver:  Solving for Uy, Initial residual = 0.00570946, Final residual = 0.000374877, No Iterations 6
GAMG:  Solving for p, Initial residual = 0.00835193, Final residual = 0.000607631, No Iterations 2
time step continuity errors : sum local = 0.00132455, global = 0.000132801, cumulative = 0.0203856
smoothSolver:  Solving for omega, Initial residual = 0.000754537, Final residual = 4.87736e-05, No Iterations 5
smoothSolver:  Solving for k, Initial residual = 0.00823802, Final residual = 0.00059136, No Iterations 6
ExecutionTime = 1.06 s  ClockTime = 1 s

scalarTransport execute: age
smoothSolver:  Solving for age, Initial residual = 0.00893461, Final residual = 0.000881045, No Iterations 12

Time = 81

smoothSolver:  Solving for Ux, Initial residual = 0.008944, Final residual = 0.000587037, No Iterations 6
smoothSolver:  Solving for Uy, Initial residual = 0.00543305, Final residual = 0.000541731, No Iterations 5
GAMG:  Solving for p, Initial residual = 0.00814726, Final residual = 0.00057192, No Iterations 2
time step continuity errors : sum local = 0.00124539, global = 0.000132155, cumulative = 0.0205178
smoothSolver:  Solving for omega, Initial residual = 0.000727993, Final residual = 4.6843e-05, No Iterations 5
smoothSolver:  Solving for k, Initial residual = 0.00794633, Final residual = 0.000568306, No Iterations 6
ExecutionTime = 1.08 s  ClockTime = 1 s

scalarTransport execute: age
smoothSolver:  Solving for age, Initial residual = 0.0085226, Final residual = 0.00079237, No Iterations 12

Time = 82

smoothSolver:  Solving for Ux, Initial residual = 0.00848352, Final residual = 0.000557015, No Iterations 6
smoothSolver:  Solving for Uy, Initial residual = 0.00520595, Final residual = 0.000512264, No Iterations 5
GAMG:  Solving for p, Initial residual = 0.0079077, Final residual = 0.000553857, No Iterations 2
time step continuity errors : sum local = 0.00120504, global = 0.000144045, cumulative = 0.0206618
smoothSolver:  Solving for omega, Initial residual = 0.000701917, Final residual = 4.48536e-05, No Iterations 5
smoothSolver:  Solving for k, Initial residual = 0.00765522, Final residual = 0.000545065, No Iterations 6
ExecutionTime = 1.09 s  ClockTime = 1 s

scalarTransport execute: age
smoothSolver:  Solving for age, Initial residual = 0.00821837, Final residual = 0.000722253, No Iterations 12

Time = 83

smoothSolver:  Solving for Ux, Initial residual = 0.00803798, Final residual = 0.000526668, No Iterations 6
smoothSolver:  Solving for Uy, Initial residual = 0.00496866, Final residual = 0.000481138, No Iterations 5
GAMG:  Solving for p, Initial residual = 0.0078037, Final residual = 0.000512033, No Iterations 2
time step continuity errors : sum local = 0.00111311, global = 0.000141084, cumulative = 0.0208029
smoothSolver:  Solving for omega, Initial residual = 0.000683544, Final residual = 4.28907e-05, No Iterations 5
smoothSolver:  Solving for k, Initial residual = 0.00736363, Final residual = 0.000521649, No Iterations 6
ExecutionTime = 1.1 s  ClockTime = 1 s

scalarTransport execute: age
smoothSolver:  Solving for age, Initial residual = 0.00800491, Final residual = 0.000769037, No Iterations 11

Time = 84

smoothSolver:  Solving for Ux, Initial residual = 0.00762517, Final residual = 0.000498103, No Iterations 6
smoothSolver:  Solving for Uy, Initial residual = 0.00470419, Final residual = 0.000447585, No Iterations 5
GAMG:  Solving for p, Initial residual = 0.00771565, Final residual = 0.000483022, No Iterations 2
time step continuity errors : sum local = 0.00104781, global = 0.000141457, cumulative = 0.0209444
smoothSolver:  Solving for omega, Initial residual = 0.00066105, Final residual = 4.11313e-05, No Iterations 5
smoothSolver:  Solving for k, Initial residual = 0.00707433, Final residual = 0.000498222, No Iterations 6
ExecutionTime = 1.11 s  ClockTime = 1 s

scalarTransport execute: age
smoothSolver:  Solving for age, Initial residual = 0.00784126, Final residual = 0.000752192, No Iterations 11

Time = 85

smoothSolver:  Solving for Ux, Initial residual = 0.00720822, Final residual = 0.000469025, No Iterations 6
smoothSolver:  Solving for Uy, Initial residual = 0.00446428, Final residual = 0.000417084, No Iterations 5
GAMG:  Solving for p, Initial residual = 0.00767668, Final residual = 0.000478212, No Iterations 2
time step continuity errors : sum local = 0.00103561, global = 0.000142061, cumulative = 0.0210864
smoothSolver:  Solving for omega, Initial residual = 0.000641481, Final residual = 6.34109e-05, No Iterations 4
smoothSolver:  Solving for k, Initial residual = 0.00678595, Final residual = 0.000474862, No Iterations 6
ExecutionTime = 1.13 s  ClockTime = 1 s

scalarTransport execute: age
smoothSolver:  Solving for age, Initial residual = 0.00768181, Final residual = 0.000756641, No Iterations 11

Time = 86

smoothSolver:  Solving for Ux, Initial residual = 0.00680773, Final residual = 0.000440265, No Iterations 6
smoothSolver:  Solving for Uy, Initial residual = 0.0042503, Final residual = 0.000389981, No Iterations 5
GAMG:  Solving for p, Initial residual = 0.00768388, Final residual = 0.000477756, No Iterations 2
time step continuity errors : sum local = 0.00103268, global = 0.000142635, cumulative = 0.0212291
smoothSolver:  Solving for omega, Initial residual = 0.000625584, Final residual = 6.10204e-05, No Iterations 4
smoothSolver:  Solving for k, Initial residual = 0.00649738, Final residual = 0.000451521, No Iterations 6
ExecutionTime = 1.14 s  ClockTime = 1 s

scalarTransport execute: age
smoothSolver:  Solving for age, Initial residual = 0.00744263, Final residual = 0.000676316, No Iterations 12

Time = 87

smoothSolver:  Solving for Ux, Initial residual = 0.00641189, Final residual = 0.000638134, No Iterations 5
smoothSolver:  Solving for Uy, Initial residual = 0.00406293, Final residual = 0.000366923, No Iterations 5
GAMG:  Solving for p, Initial residual = 0.00759889, Final residual = 0.000464471, No Iterations 2
time step continuity errors : sum local = 0.0010017, global = 0.000141592, cumulative = 0.0213707
smoothSolver:  Solving for omega, Initial residual = 0.000613392, Final residual = 5.8406e-05, No Iterations 4
smoothSolver:  Solving for k, Initial residual = 0.00621411, Final residual = 0.000428487, No Iterations 6
ExecutionTime = 1.15 s  ClockTime = 1 s

scalarTransport execute: age
smoothSolver:  Solving for age, Initial residual = 0.0071714, Final residual = 0.000679573, No Iterations 12

Time = 88

smoothSolver:  Solving for Ux, Initial residual = 0.0060641, Final residual = 0.000600035, No Iterations 5
smoothSolver:  Solving for Uy, Initial residual = 0.00387067, Final residual = 0.000345813, No Iterations 5
GAMG:  Solving for p, Initial residual = 0.00748461, Final residual = 0.000449024, No Iterations 2
time step continuity errors : sum local = 0.000965881, global = 0.000140737, cumulative = 0.0215114
smoothSolver:  Solving for omega, Initial residual = 0.000600354, Final residual = 5.61419e-05, No Iterations 4
smoothSolver:  Solving for k, Initial residual = 0.00593139, Final residual = 0.000405474, No Iterations 6
ExecutionTime = 1.15 s  ClockTime = 1 s

scalarTransport execute: age
smoothSolver:  Solving for age, Initial residual = 0.00694984, Final residual = 0.000679176, No Iterations 12

Time = 89

smoothSolver:  Solving for Ux, Initial residual = 0.00571566, Final residual = 0.000561092, No Iterations 5
smoothSolver:  Solving for Uy, Initial residual = 0.00373989, Final residual = 0.000332221, No Iterations 5
GAMG:  Solving for p, Initial residual = 0.00734588, Final residual = 0.000434039, No Iterations 2
time step continuity errors : sum local = 0.000931173, global = 0.000139431, cumulative = 0.0216508
smoothSolver:  Solving for omega, Initial residual = 0.000589995, Final residual = 5.38813e-05, No Iterations 4
smoothSolver:  Solving for k, Initial residual = 0.00565382, Final residual = 0.000382686, No Iterations 6
ExecutionTime = 1.16 s  ClockTime = 1 s

scalarTransport execute: age
smoothSolver:  Solving for age, Initial residual = 0.00674109, Final residual = 0.000602985, No Iterations 13

Time = 90

smoothSolver:  Solving for Ux, Initial residual = 0.00536888, Final residual = 0.000522192, No Iterations 5
smoothSolver:  Solving for Uy, Initial residual = 0.00363632, Final residual = 0.00032146, No Iterations 5
GAMG:  Solving for p, Initial residual = 0.00720069, Final residual = 0.000418541, No Iterations 2
time step continuity errors : sum local = 0.000896508, global = 0.000138731, cumulative = 0.0217896
smoothSolver:  Solving for omega, Initial residual = 0.000578552, Final residual = 5.16003e-05, No Iterations 4
smoothSolver:  Solving for k, Initial residual = 0.00538461, Final residual = 0.00036041, No Iterations 6
ExecutionTime = 1.19 s  ClockTime = 1 s

scalarTransport execute: age
smoothSolver:  Solving for age, Initial residual = 0.00654986, Final residual = 0.000610557, No Iterations 13

Time = 91

smoothSolver:  Solving for Ux, Initial residual = 0.00502117, Final residual = 0.000483515, No Iterations 5
smoothSolver:  Solving for Uy, Initial residual = 0.00354123, Final residual = 0.000311757, No Iterations 5
GAMG:  Solving for p, Initial residual = 0.00702556, Final residual = 0.000401717, No Iterations 2
time step continuity errors : sum local = 0.000859626, global = 0.000138132, cumulative = 0.0219277
smoothSolver:  Solving for omega, Initial residual = 0.000566402, Final residual = 4.936e-05, No Iterations 4
smoothSolver:  Solving for k, Initial residual = 0.00512421, Final residual = 0.000338769, No Iterations 6
ExecutionTime = 1.2 s  ClockTime = 1 s

scalarTransport execute: age
smoothSolver:  Solving for age, Initial residual = 0.00643151, Final residual = 0.000622773, No Iterations 13

Time = 92

smoothSolver:  Solving for Ux, Initial residual = 0.00468647, Final residual = 0.000446083, No Iterations 5
smoothSolver:  Solving for Uy, Initial residual = 0.003454, Final residual = 0.000302837, No Iterations 5
GAMG:  Solving for p, Initial residual = 0.00685961, Final residual = 0.000386519, No Iterations 2
time step continuity errors : sum local = 0.000826836, global = 0.000137725, cumulative = 0.0220654
smoothSolver:  Solving for omega, Initial residual = 0.000551916, Final residual = 4.71226e-05, No Iterations 4
smoothSolver:  Solving for k, Initial residual = 0.00487171, Final residual = 0.000317884, No Iterations 6
ExecutionTime = 1.21 s  ClockTime = 1 s

scalarTransport execute: age
smoothSolver:  Solving for age, Initial residual = 0.00626443, Final residual = 0.00055922, No Iterations 14

Time = 93

smoothSolver:  Solving for Ux, Initial residual = 0.00436312, Final residual = 0.000410226, No Iterations 5
smoothSolver:  Solving for Uy, Initial residual = 0.00337589, Final residual = 0.000294603, No Iterations 5
GAMG:  Solving for p, Initial residual = 0.00667701, Final residual = 0.000371359, No Iterations 2
time step continuity errors : sum local = 0.000794189, global = 0.000135695, cumulative = 0.0222011
smoothSolver:  Solving for omega, Initial residual = 0.000539239, Final residual = 4.49507e-05, No Iterations 4
smoothSolver:  Solving for k, Initial residual = 0.00462766, Final residual = 0.000297796, No Iterations 6
ExecutionTime = 1.22 s  ClockTime = 1 s

scalarTransport execute: age
smoothSolver:  Solving for age, Initial residual = 0.00612255, Final residual = 0.000565442, No Iterations 14

Time = 94

smoothSolver:  Solving for Ux, Initial residual = 0.00405304, Final residual = 0.000376112, No Iterations 5
smoothSolver:  Solving for Uy, Initial residual = 0.00330743, Final residual = 0.00028684, No Iterations 5
GAMG:  Solving for p, Initial residual = 0.00648723, Final residual = 0.000354703, No Iterations 2
time step continuity errors : sum local = 0.000758079, global = 0.000132462, cumulative = 0.0223336
smoothSolver:  Solving for omega, Initial residual = 0.00052707, Final residual = 4.29105e-05, No Iterations 4
smoothSolver:  Solving for k, Initial residual = 0.00439147, Final residual = 0.000433999, No Iterations 5
ExecutionTime = 1.24 s  ClockTime = 1 s

scalarTransport execute: age
smoothSolver:  Solving for age, Initial residual = 0.00597241, Final residual = 0.000568978, No Iterations 14

Time = 95

smoothSolver:  Solving for Ux, Initial residual = 0.00375809, Final residual = 0.00034363, No Iterations 5
smoothSolver:  Solving for Uy, Initial residual = 0.00323944, Final residual = 0.000279038, No Iterations 5
GAMG:  Solving for p, Initial residual = 0.00630949, Final residual = 0.000337645, No Iterations 2
time step continuity errors : sum local = 0.00072129, global = 0.000129124, cumulative = 0.0224627
smoothSolver:  Solving for omega, Initial residual = 0.000512397, Final residual = 4.09645e-05, No Iterations 4
smoothSolver:  Solving for k, Initial residual = 0.00416664, Final residual = 0.000406829, No Iterations 5
ExecutionTime = 1.25 s  ClockTime = 1 s

scalarTransport execute: age
smoothSolver:  Solving for age, Initial residual = 0.00580713, Final residual = 0.000569155, No Iterations 14

Time = 96

smoothSolver:  Solving for Ux, Initial residual = 0.00348604, Final residual = 0.000313078, No Iterations 5
[...]

smoothSolver:  Solving for Ux, Initial residual = 9.66108e-07, Final residual = 8.64224e-08, No Iterations 5
smoothSolver:  Solving for Uy, Initial residual = 7.26597e-07, Final residual = 6.33702e-08, No Iterations 5
GAMG:  Solving for p, Initial residual = 2.74644e-06, Final residual = 1.46678e-07, No Iterations 2
time step continuity errors : sum local = 3.18585e-07, global = 4.8096e-09, cumulative = 0.0258742
smoothSolver:  Solving for omega, Initial residual = 1.36573e-07, Final residual = 1.32022e-08, No Iterations 4
smoothSolver:  Solving for k, Initial residual = 5.90694e-07, Final residual = 5.87742e-08, No Iterations 5
ExecutionTime = 5.63 s  ClockTime = 6 s

scalarTransport execute: age
smoothSolver:  Solving for age, Initial residual = 0.000375581, Final residual = 3.45521e-05, No Iterations 15

Time = 444

smoothSolver:  Solving for Ux, Initial residual = 9.22933e-07, Final residual = 8.24023e-08, No Iterations 5
smoothSolver:  Solving for Uy, Initial residual = 6.97999e-07, Final residual = 6.08668e-08, No Iterations 5
GAMG:  Solving for p, Initial residual = 2.64058e-06, Final residual = 1.41082e-07, No Iterations 2
time step continuity errors : sum local = 3.0643e-07, global = 4.81303e-09, cumulative = 0.0258742
smoothSolver:  Solving for omega, Initial residual = 1.31349e-07, Final residual = 1.27053e-08, No Iterations 4
smoothSolver:  Solving for k, Initial residual = 5.78196e-07, Final residual = 3.71084e-08, No Iterations 6
ExecutionTime = 5.65 s  ClockTime = 6 s

scalarTransport execute: age
smoothSolver:  Solving for age, Initial residual = 0.000374582, Final residual = 3.44605e-05, No Iterations 15

Time = 445

smoothSolver:  Solving for Ux, Initial residual = 8.79773e-07, Final residual = 7.83725e-08, No Iterations 5
smoothSolver:  Solving for Uy, Initial residual = 6.70528e-07, Final residual = 5.84846e-08, No Iterations 5
GAMG:  Solving for p, Initial residual = 2.53877e-06, Final residual = 1.35683e-07, No Iterations 2
time step continuity errors : sum local = 2.94705e-07, global = 4.80171e-09, cumulative = 0.0258742
smoothSolver:  Solving for omega, Initial residual = 1.26564e-07, Final residual = 1.22428e-08, No Iterations 4
smoothSolver:  Solving for k, Initial residual = 5.65453e-07, Final residual = 3.65254e-08, No Iterations 6
ExecutionTime = 5.66 s  ClockTime = 6 s

scalarTransport execute: age
smoothSolver:  Solving for age, Initial residual = 0.000373587, Final residual = 3.43693e-05, No Iterations 15

Time = 446

smoothSolver:  Solving for Ux, Initial residual = 8.37894e-07, Final residual = 7.44798e-08, No Iterations 5
smoothSolver:  Solving for Uy, Initial residual = 6.43174e-07, Final residual = 5.60972e-08, No Iterations 5
GAMG:  Solving for p, Initial residual = 2.43857e-06, Final residual = 1.30357e-07, No Iterations 2
time step continuity errors : sum local = 2.83136e-07, global = 4.73068e-09, cumulative = 0.0258742
smoothSolver:  Solving for omega, Initial residual = 1.21744e-07, Final residual = 1.1785e-08, No Iterations 4
smoothSolver:  Solving for k, Initial residual = 5.53286e-07, Final residual = 3.59701e-08, No Iterations 6
ExecutionTime = 5.67 s  ClockTime = 6 s

scalarTransport execute: age
smoothSolver:  Solving for age, Initial residual = 0.000372597, Final residual = 3.42787e-05, No Iterations 15

Time = 447

smoothSolver:  Solving for Ux, Initial residual = 7.97133e-07, Final residual = 7.07108e-08, No Iterations 5
smoothSolver:  Solving for Uy, Initial residual = 6.16212e-07, Final residual = 5.3736e-08, No Iterations 5
GAMG:  Solving for p, Initial residual = 2.33958e-06, Final residual = 1.25083e-07, No Iterations 2
time step continuity errors : sum local = 2.71682e-07, global = 4.58164e-09, cumulative = 0.0258743
smoothSolver:  Solving for omega, Initial residual = 1.16972e-07, Final residual = 1.13341e-08, No Iterations 4
smoothSolver:  Solving for k, Initial residual = 5.41841e-07, Final residual = 3.54414e-08, No Iterations 6
ExecutionTime = 5.68 s  ClockTime = 6 s

scalarTransport execute: age
smoothSolver:  Solving for age, Initial residual = 0.000371613, Final residual = 3.41885e-05, No Iterations 15

Time = 448

smoothSolver:  Solving for Ux, Initial residual = 7.5743e-07, Final residual = 6.70605e-08, No Iterations 5
smoothSolver:  Solving for Uy, Initial residual = 5.89799e-07, Final residual = 5.14204e-08, No Iterations 5
GAMG:  Solving for p, Initial residual = 2.24245e-06, Final residual = 1.19882e-07, No Iterations 2
time step continuity errors : sum local = 2.60385e-07, global = 4.33714e-09, cumulative = 0.0258743
smoothSolver:  Solving for omega, Initial residual = 1.1229e-07, Final residual = 1.08912e-08, No Iterations 4
smoothSolver:  Solving for k, Initial residual = 5.31113e-07, Final residual = 3.49363e-08, No Iterations 6
ExecutionTime = 5.7 s  ClockTime = 6 s

scalarTransport execute: age
smoothSolver:  Solving for age, Initial residual = 0.000370633, Final residual = 3.40988e-05, No Iterations 15

Time = 449

smoothSolver:  Solving for Ux, Initial residual = 7.18849e-07, Final residual = 6.35318e-08, No Iterations 5
smoothSolver:  Solving for Uy, Initial residual = 5.63919e-07, Final residual = 4.91544e-08, No Iterations 5
GAMG:  Solving for p, Initial residual = 2.14755e-06, Final residual = 1.14793e-07, No Iterations 2
time step continuity errors : sum local = 2.49331e-07, global = 3.99371e-09, cumulative = 0.0258743
smoothSolver:  Solving for omega, Initial residual = 1.0769e-07, Final residual = 1.04574e-08, No Iterations 4
smoothSolver:  Solving for k, Initial residual = 5.20991e-07, Final residual = 3.44526e-08, No Iterations 6
ExecutionTime = 5.71 s  ClockTime = 6 s

scalarTransport execute: age
smoothSolver:  Solving for age, Initial residual = 0.000369659, Final residual = 3.40097e-05, No Iterations 15

Time = 450

smoothSolver:  Solving for Ux, Initial residual = 6.8145e-07, Final residual = 6.0127e-08, No Iterations 5
smoothSolver:  Solving for Uy, Initial residual = 5.38526e-07, Final residual = 4.69344e-08, No Iterations 5
GAMG:  Solving for p, Initial residual = 2.05504e-06, Final residual = 1.09842e-07, No Iterations 2
time step continuity errors : sum local = 2.38578e-07, global = 3.55091e-09, cumulative = 0.0258743
smoothSolver:  Solving for omega, Initial residual = 1.03191e-07, Final residual = 1.00335e-08, No Iterations 4
smoothSolver:  Solving for k, Initial residual = 5.11424e-07, Final residual = 3.39862e-08, No Iterations 6
ExecutionTime = 5.72 s  ClockTime = 6 s

scalarTransport execute: age
smoothSolver:  Solving for age, Initial residual = 0.000368691, Final residual = 3.3921e-05, No Iterations 15

Time = 451

smoothSolver:  Solving for Ux, Initial residual = 6.45245e-07, Final residual = 5.68471e-08, No Iterations 5
smoothSolver:  Solving for Uy, Initial residual = 5.13663e-07, Final residual = 4.47604e-08, No Iterations 5
GAMG:  Solving for p, Initial residual = 1.96506e-06, Final residual = 1.05048e-07, No Iterations 2
time step continuity errors : sum local = 2.28165e-07, global = 3.01565e-09, cumulative = 0.0258743
smoothSolver:  Solving for omega, Initial residual = 9.88032e-08, Final residual = 9.61974e-09, No Iterations 4
smoothSolver:  Solving for k, Initial residual = 5.02347e-07, Final residual = 3.35362e-08, No Iterations 6
ExecutionTime = 5.74 s  ClockTime = 6 s

scalarTransport execute: age
smoothSolver:  Solving for age, Initial residual = 0.000367728, Final residual = 3.38329e-05, No Iterations 15

Time = 452

smoothSolver:  Solving for Ux, Initial residual = 6.1029e-07, Final residual = 5.36875e-08, No Iterations 5
smoothSolver:  Solving for Uy, Initial residual = 4.89381e-07, Final residual = 4.26338e-08, No Iterations 5
GAMG:  Solving for p, Initial residual = 1.87784e-06, Final residual = 1.00415e-07, No Iterations 2
time step continuity errors : sum local = 2.18104e-07, global = 2.39761e-09, cumulative = 0.0258743
smoothSolver:  Solving for omega, Initial residual = 9.45281e-08, Final residual = 9.21669e-09, No Iterations 4
smoothSolver:  Solving for k, Initial residual = 4.93712e-07, Final residual = 3.31001e-08, No Iterations 6
ExecutionTime = 5.75 s  ClockTime = 6 s

scalarTransport execute: age
smoothSolver:  Solving for age, Initial residual = 0.00036677, Final residual = 3.37452e-05, No Iterations 15

Time = 453

smoothSolver:  Solving for Ux, Initial residual = 5.76604e-07, Final residual = 5.0645e-08, No Iterations 5
smoothSolver:  Solving for Uy, Initial residual = 4.65736e-07, Final residual = 4.05609e-08, No Iterations 5
GAMG:  Solving for p, Initial residual = 1.79441e-06, Final residual = 9.59529e-08, No Iterations 2
time step continuity errors : sum local = 2.08411e-07, global = 1.70966e-09, cumulative = 0.0258743
smoothSolver:  Solving for omega, Initial residual = 9.03678e-08, Final residual = 8.82444e-09, No Iterations 4
smoothSolver:  Solving for k, Initial residual = 4.85465e-07, Final residual = 3.26742e-08, No Iterations 6
ExecutionTime = 5.76 s  ClockTime = 6 s

scalarTransport execute: age
smoothSolver:  Solving for age, Initial residual = 0.000365816, Final residual = 3.36583e-05, No Iterations 15

Time = 454

smoothSolver:  Solving for Ux, Initial residual = 5.44201e-07, Final residual = 4.77161e-08, No Iterations 5
smoothSolver:  Solving for Uy, Initial residual = 4.42791e-07, Final residual = 3.85475e-08, No Iterations 5
GAMG:  Solving for p, Initial residual = 1.71396e-06, Final residual = 9.16777e-08, No Iterations 2
time step continuity errors : sum local = 1.99125e-07, global = 9.64511e-10, cumulative = 0.0258743
smoothSolver:  Solving for omega, Initial residual = 8.63316e-08, Final residual = 8.44345e-09, No Iterations 4
smoothSolver:  Solving for k, Initial residual = 4.77531e-07, Final residual = 3.22577e-08, No Iterations 6
ExecutionTime = 5.78 s  ClockTime = 6 s

scalarTransport execute: age
smoothSolver:  Solving for age, Initial residual = 0.000364868, Final residual = 3.35718e-05, No Iterations 15

Time = 455

smoothSolver:  Solving for Ux, Initial residual = 5.13117e-07, Final residual = 4.48982e-08, No Iterations 5
smoothSolver:  Solving for Uy, Initial residual = 4.20626e-07, Final residual = 3.65987e-08, No Iterations 5
GAMG:  Solving for p, Initial residual = 1.63726e-06, Final residual = 8.75872e-08, No Iterations 2
time step continuity errors : sum local = 1.90241e-07, global = 1.74473e-10, cumulative = 0.0258743
smoothSolver:  Solving for omega, Initial residual = 8.24288e-08, Final residual = 8.07375e-09, No Iterations 4
smoothSolver:  Solving for k, Initial residual = 4.69919e-07, Final residual = 3.18496e-08, No Iterations 6
ExecutionTime = 5.79 s  ClockTime = 6 s

scalarTransport execute: age
smoothSolver:  Solving for age, Initial residual = 0.000363924, Final residual = 3.34859e-05, No Iterations 15

Time = 456

smoothSolver:  Solving for Ux, Initial residual = 4.83294e-07, Final residual = 4.21906e-08, No Iterations 5
smoothSolver:  Solving for Uy, Initial residual = 3.9931e-07, Final residual = 3.47222e-08, No Iterations 5
GAMG:  Solving for p, Initial residual = 1.56417e-06, Final residual = 8.36813e-08, No Iterations 2
time step continuity errors : sum local = 1.81757e-07, global = -6.49942e-10, cumulative = 0.0258743
smoothSolver:  Solving for omega, Initial residual = 7.86582e-08, Final residual = 7.71574e-09, No Iterations 4
smoothSolver:  Solving for k, Initial residual = 4.62613e-07, Final residual = 3.1449e-08, No Iterations 6
ExecutionTime = 5.8 s  ClockTime = 6 s

scalarTransport execute: age
smoothSolver:  Solving for age, Initial residual = 0.000362985, Final residual = 3.34005e-05, No Iterations 15

Time = 457

smoothSolver:  Solving for Ux, Initial residual = 4.54804e-07, Final residual = 3.95934e-08, No Iterations 5
smoothSolver:  Solving for Uy, Initial residual = 3.78883e-07, Final residual = 3.29204e-08, No Iterations 5
GAMG:  Solving for p, Initial residual = 1.49381e-06, Final residual = 7.99547e-08, No Iterations 2
time step continuity errors : sum local = 1.73663e-07, global = -1.49998e-09, cumulative = 0.0258743
smoothSolver:  Solving for omega, Initial residual = 7.50488e-08, Final residual = 7.36947e-09, No Iterations 4
smoothSolver:  Solving for k, Initial residual = 4.5562e-07, Final residual = 3.10554e-08, No Iterations 6
ExecutionTime = 5.81 s  ClockTime = 6 s

scalarTransport execute: age
smoothSolver:  Solving for age, Initial residual = 0.00036205, Final residual = 3.33155e-05, No Iterations 15

Time = 458

smoothSolver:  Solving for Ux, Initial residual = 4.27702e-07, Final residual = 3.71079e-08, No Iterations 5
smoothSolver:  Solving for Uy, Initial residual = 3.59368e-07, Final residual = 3.11958e-08, No Iterations 5
GAMG:  Solving for p, Initial residual = 1.42624e-06, Final residual = 7.63937e-08, No Iterations 2
time step continuity errors : sum local = 1.65929e-07, global = -2.36899e-09, cumulative = 0.0258743
smoothSolver:  Solving for omega, Initial residual = 7.16069e-08, Final residual = 7.03514e-09, No Iterations 4
smoothSolver:  Solving for k, Initial residual = 4.48868e-07, Final residual = 3.06679e-08, No Iterations 6
ExecutionTime = 5.83 s  ClockTime = 6 s

scalarTransport execute: age
smoothSolver:  Solving for age, Initial residual = 0.00036112, Final residual = 3.3231e-05, No Iterations 15

Time = 459

smoothSolver:  Solving for Ux, Initial residual = 4.01976e-07, Final residual = 3.47437e-08, No Iterations 5
smoothSolver:  Solving for Uy, Initial residual = 3.40769e-07, Final residual = 2.95488e-08, No Iterations 5
GAMG:  Solving for p, Initial residual = 1.36133e-06, Final residual = 7.2986e-08, No Iterations 2
time step continuity errors : sum local = 1.58527e-07, global = -3.25212e-09, cumulative = 0.0258743
smoothSolver:  Solving for omega, Initial residual = 6.83179e-08, Final residual = 6.71325e-09, No Iterations 4
smoothSolver:  Solving for k, Initial residual = 4.42422e-07, Final residual = 3.02855e-08, No Iterations 6
ExecutionTime = 5.84 s  ClockTime = 6 s

scalarTransport execute: age
smoothSolver:  Solving for age, Initial residual = 0.000360195, Final residual = 3.31468e-05, No Iterations 15

Time = 460

smoothSolver:  Solving for Ux, Initial residual = 3.77754e-07, Final residual = 3.25296e-08, No Iterations 5
smoothSolver:  Solving for Uy, Initial residual = 3.23031e-07, Final residual = 2.79783e-08, No Iterations 5
GAMG:  Solving for p, Initial residual = 1.29911e-06, Final residual = 6.97201e-08, No Iterations 2
time step continuity errors : sum local = 1.51433e-07, global = -4.14611e-09, cumulative = 0.0258743
smoothSolver:  Solving for omega, Initial residual = 6.52026e-08, Final residual = 6.40307e-09, No Iterations 4
smoothSolver:  Solving for k, Initial residual = 4.36364e-07, Final residual = 2.99074e-08, No Iterations 6
ExecutionTime = 5.85 s  ClockTime = 6 s

scalarTransport execute: age
smoothSolver:  Solving for age, Initial residual = 0.000359273, Final residual = 3.3063e-05, No Iterations 15

Time = 461

smoothSolver:  Solving for Ux, Initial residual = 3.55162e-07, Final residual = 3.04723e-08, No Iterations 5
smoothSolver:  Solving for Uy, Initial residual = 3.06135e-07, Final residual = 2.64816e-08, No Iterations 5
GAMG:  Solving for p, Initial residual = 1.23932e-06, Final residual = 6.65829e-08, No Iterations 2
time step continuity errors : sum local = 1.44619e-07, global = -5.04875e-09, cumulative = 0.0258743
smoothSolver:  Solving for omega, Initial residual = 6.22097e-08, Final residual = 6.10444e-09, No Iterations 4
smoothSolver:  Solving for k, Initial residual = 4.30623e-07, Final residual = 2.95332e-08, No Iterations 6
ExecutionTime = 5.86 s  ClockTime = 6 s

scalarTransport execute: age
smoothSolver:  Solving for age, Initial residual = 0.000358356, Final residual = 3.29797e-05, No Iterations 15

Time = 462

smoothSolver:  Solving for Ux, Initial residual = 3.34136e-07, Final residual = 2.85508e-08, No Iterations 5
smoothSolver:  Solving for Uy, Initial residual = 2.90013e-07, Final residual = 2.50548e-08, No Iterations 5
GAMG:  Solving for p, Initial residual = 1.18197e-06, Final residual = 6.35572e-08, No Iterations 2
time step continuity errors : sum local = 1.38047e-07, global = -5.95847e-09, cumulative = 0.0258742
smoothSolver:  Solving for omega, Initial residual = 5.93421e-08, Final residual = 9.8431e-09, No Iterations 3
smoothSolver:  Solving for k, Initial residual = 4.25224e-07, Final residual = 2.91655e-08, No Iterations 6
ExecutionTime = 5.88 s  ClockTime = 6 s

scalarTransport execute: age
smoothSolver:  Solving for age, Initial residual = 0.000357444, Final residual = 3.2897e-05, No Iterations 15

Time = 463

smoothSolver:  Solving for Ux, Initial residual = 3.14295e-07, Final residual = 2.67184e-08, No Iterations 5
smoothSolver:  Solving for Uy, Initial residual = 2.74758e-07, Final residual = 2.37066e-08, No Iterations 5
GAMG:  Solving for p, Initial residual = 1.12702e-06, Final residual = 6.06367e-08, No Iterations 2
time step continuity errors : sum local = 1.31704e-07, global = -6.87271e-09, cumulative = 0.0258742
smoothSolver:  Solving for omega, Initial residual = 5.77579e-08, Final residual = 9.59562e-09, No Iterations 3
smoothSolver:  Solving for k, Initial residual = 4.20021e-07, Final residual = 2.88011e-08, No Iterations 6
ExecutionTime = 5.89 s  ClockTime = 6 s

scalarTransport execute: age
smoothSolver:  Solving for age, Initial residual = 0.000356535, Final residual = 3.28147e-05, No Iterations 15

Time = 464

smoothSolver:  Solving for Ux, Initial residual = 2.9598e-07, Final residual = 2.50281e-08, No Iterations 5
smoothSolver:  Solving for Uy, Initial residual = 2.60129e-07, Final residual = 2.24037e-08, No Iterations 5
GAMG:  Solving for p, Initial residual = 1.07378e-06, Final residual = 5.78055e-08, No Iterations 2
time step continuity errors : sum local = 1.25555e-07, global = -7.78992e-09, cumulative = 0.0258742
smoothSolver:  Solving for omega, Initial residual = 5.59343e-08, Final residual = 9.30433e-09, No Iterations 3
smoothSolver:  Solving for k, Initial residual = 4.14878e-07, Final residual = 2.84326e-08, No Iterations 6
ExecutionTime = 5.9 s  ClockTime = 6 s

scalarTransport execute: age
smoothSolver:  Solving for age, Initial residual = 0.000355631, Final residual = 3.27329e-05, No Iterations 15

Time = 465

smoothSolver:  Solving for Ux, Initial residual = 2.78917e-07, Final residual = 2.34781e-08, No Iterations 5
smoothSolver:  Solving for Uy, Initial residual = 2.46064e-07, Final residual = 2.11489e-08, No Iterations 5
GAMG:  Solving for p, Initial residual = 1.02226e-06, Final residual = 5.50548e-08, No Iterations 2
time step continuity errors : sum local = 1.1958e-07, global = -8.70789e-09, cumulative = 0.0258742
smoothSolver:  Solving for omega, Initial residual = 5.40033e-08, Final residual = 8.99358e-09, No Iterations 3
smoothSolver:  Solving for k, Initial residual = 4.0983e-07, Final residual = 2.80612e-08, No Iterations 6
ExecutionTime = 5.92 s  ClockTime = 6 s

scalarTransport execute: age
smoothSolver:  Solving for age, Initial residual = 0.000354732, Final residual = 3.26515e-05, No Iterations 15

Time = 466

smoothSolver:  Solving for Ux, Initial residual = 2.63267e-07, Final residual = 2.20706e-08, No Iterations 5
smoothSolver:  Solving for Uy, Initial residual = 2.32623e-07, Final residual = 1.99419e-08, No Iterations 5
GAMG:  Solving for p, Initial residual = 9.72608e-07, Final residual = 5.23703e-08, No Iterations 2
time step continuity errors : sum local = 1.13749e-07, global = -9.62248e-09, cumulative = 0.0258742
smoothSolver:  Solving for omega, Initial residual = 5.20607e-08, Final residual = 8.67304e-09, No Iterations 3
smoothSolver:  Solving for k, Initial residual = 4.04825e-07, Final residual = 2.76876e-08, No Iterations 6
ExecutionTime = 5.93 s  ClockTime = 6 s


SIMPLE solution converged in 466 iterations

scalarTransport execute: age
smoothSolver:  Solving for age, Initial residual = 0.000353837, Final residual = 3.25707e-05, No Iterations 15

End

