/*---------------------------------------------------------------------------*\
| =========                 |                                                 |
| \\      /  F ield         | OpenFOAM: The Open Source CFD Toolbox           |
|  \\    /   O peration     | Version:  v2012                                 |
|   \\  /    A nd           | Website:  www.openfoam.com                      |
|    \\/     M anipulation  |                                                 |
\*---------------------------------------------------------------------------*/
Build  : _7bdb509494-20201222 OPENFOAM=2012
Arch   : "LSB;label=32;scalar=64"
Exec   : simpleFoam
Date   : Feb 23 2023
Time   : 20:04:16
Host   : johnsDesktop
PID    : 12752
I/O    : uncollated
Case   : /home/john/of_runs/cases/dbl_0_35_8-00120_9
nProcs : 1
trapFpe: Floating point exception trapping enabled (FOAM_SIGFPE).
fileModificationChecking : Monitoring run-time modified files using timeStampMaster (fileModificationSkew 5, maxFileModificationPolls 20)
allowSystemOperations : Allowing user-supplied system call operations

// * * * * * * * * * * * * * * * * * * * * * * * * * * * * * * * * * * * * * //
Create time

Create mesh for time = 0


SIMPLE: convergence criteria
    field p	 tolerance 1e-06
    field U	 tolerance 1e-06
    field "(k|epsilon|omega|f|v2|age)"	 tolerance 1e-05

Reading field p

Reading field U

Reading/calculating face flux field phi

Selecting incompressible transport model Newtonian
Selecting turbulence model type RAS
Selecting RAS turbulence model kOmegaSST
Selecting patchDistMethod meshWave
RAS
{
    RASModel        kOmegaSST;
    turbulence      on;
    printCoeffs     on;
    alphaK1         0.85;
    alphaK2         1;
    alphaOmega1     0.5;
    alphaOmega2     0.856;
    gamma1          0.555556;
    gamma2          0.44;
    beta1           0.075;
    beta2           0.0828;
    betaStar        0.09;
    a1              0.31;
    b1              1;
    c1              10;
    F3              false;
    decayControl    false;
    kInf            0;
    omegaInf        0;
}

No MRF models present

No finite volume options present

Starting time loop

Selecting finite volume options type scalarSemiImplicitSource
    Source: unitySource
    - selecting all cells
    - selected 6556 cell(s) with volume 0.03165
Time = 1

smoothSolver:  Solving for Ux, Initial residual = 0, Final residual = 0, No Iterations 0
smoothSolver:  Solving for Uy, Initial residual = 1, Final residual = 0.0705907, No Iterations 2
GAMG:  Solving for p, Initial residual = 1, Final residual = 0.0589718, No Iterations 6
time step continuity errors : sum local = 0.0037265, global = -0.00103472, cumulative = -0.00103472
smoothSolver:  Solving for omega, Initial residual = 0.267041, Final residual = 0.0126017, No Iterations 3
smoothSolver:  Solving for k, Initial residual = 1, Final residual = 0.0803335, No Iterations 3
ExecutionTime = 0.05 s  ClockTime = 0 s

scalarTransport execute: age
smoothSolver:  Solving for age, Initial residual = 1, Final residual = 0.0837145, No Iterations 6

Time = 2

smoothSolver:  Solving for Ux, Initial residual = 0.585898, Final residual = 0.0500439, No Iterations 6
smoothSolver:  Solving for Uy, Initial residual = 0.281364, Final residual = 0.0193085, No Iterations 6
GAMG:  Solving for p, Initial residual = 0.0501043, Final residual = 0.00471052, No Iterations 3
time step continuity errors : sum local = 0.0626454, global = 0.00354161, cumulative = 0.00250689
smoothSolver:  Solving for omega, Initial residual = 0.263736, Final residual = 0.0249554, No Iterations 3
smoothSolver:  Solving for k, Initial residual = 0.604578, Final residual = 0.0560302, No Iterations 4
ExecutionTime = 0.06 s  ClockTime = 0 s

scalarTransport execute: age
smoothSolver:  Solving for age, Initial residual = 0.58897, Final residual = 0.0587489, No Iterations 7

Time = 3

smoothSolver:  Solving for Ux, Initial residual = 0.224906, Final residual = 0.0151692, No Iterations 6
smoothSolver:  Solving for Uy, Initial residual = 0.106708, Final residual = 0.00957159, No Iterations 5
GAMG:  Solving for p, Initial residual = 0.0531247, Final residual = 0.00342695, No Iterations 3
time step continuity errors : sum local = 0.019735, global = 0.00144296, cumulative = 0.00394985
smoothSolver:  Solving for omega, Initial residual = 0.265388, Final residual = 0.0253754, No Iterations 4
smoothSolver:  Solving for k, Initial residual = 0.510789, Final residual = 0.0380209, No Iterations 5
ExecutionTime = 0.07 s  ClockTime = 0 s

scalarTransport execute: age
smoothSolver:  Solving for age, Initial residual = 0.417117, Final residual = 0.037332, No Iterations 10

Time = 4

smoothSolver:  Solving for Ux, Initial residual = 0.113033, Final residual = 0.00968828, No Iterations 4
smoothSolver:  Solving for Uy, Initial residual = 0.0527425, Final residual = 0.00470212, No Iterations 4
GAMG:  Solving for p, Initial residual = 0.0861729, Final residual = 0.00385141, No Iterations 3
time step continuity errors : sum local = 0.0107658, global = 0.000507321, cumulative = 0.00445718
smoothSolver:  Solving for omega, Initial residual = 0.151603, Final residual = 0.0103638, No Iterations 5
smoothSolver:  Solving for k, Initial residual = 0.439908, Final residual = 0.0369019, No Iterations 5
ExecutionTime = 0.09 s  ClockTime = 0 s

scalarTransport execute: age
smoothSolver:  Solving for age, Initial residual = 0.296831, Final residual = 0.0289185, No Iterations 8

Time = 5

smoothSolver:  Solving for Ux, Initial residual = 0.0697223, Final residual = 0.00593457, No Iterations 5
smoothSolver:  Solving for Uy, Initial residual = 0.0311492, Final residual = 0.00208764, No Iterations 5
GAMG:  Solving for p, Initial residual = 0.0770007, Final residual = 0.0032837, No Iterations 2
time step continuity errors : sum local = 0.00813584, global = -2.94851e-05, cumulative = 0.00442769
smoothSolver:  Solving for omega, Initial residual = 0.105492, Final residual = 0.00791532, No Iterations 5
smoothSolver:  Solving for k, Initial residual = 0.343296, Final residual = 0.0311425, No Iterations 5
ExecutionTime = 0.1 s  ClockTime = 0 s

scalarTransport execute: age
smoothSolver:  Solving for age, Initial residual = 0.223053, Final residual = 0.0214011, No Iterations 9

Time = 6

smoothSolver:  Solving for Ux, Initial residual = 0.0496248, Final residual = 0.0033852, No Iterations 6
smoothSolver:  Solving for Uy, Initial residual = 0.0237964, Final residual = 0.00184215, No Iterations 5
GAMG:  Solving for p, Initial residual = 0.0613831, Final residual = 0.00335041, No Iterations 2
time step continuity errors : sum local = 0.00846466, global = -0.000471393, cumulative = 0.0039563
smoothSolver:  Solving for omega, Initial residual = 0.0830972, Final residual = 0.00666927, No Iterations 5
smoothSolver:  Solving for k, Initial residual = 0.274798, Final residual = 0.0264652, No Iterations 5
ExecutionTime = 0.11 s  ClockTime = 0 s

scalarTransport execute: age
smoothSolver:  Solving for age, Initial residual = 0.178518, Final residual = 0.0164518, No Iterations 10

Time = 7

smoothSolver:  Solving for Ux, Initial residual = 0.040356, Final residual = 0.00271418, No Iterations 6
smoothSolver:  Solving for Uy, Initial residual = 0.0202398, Final residual = 0.00167777, No Iterations 5
GAMG:  Solving for p, Initial residual = 0.0501215, Final residual = 0.0038572, No Iterations 2
time step continuity errors : sum local = 0.00999704, global = -0.000841214, cumulative = 0.00311508
smoothSolver:  Solving for omega, Initial residual = 0.0637729, Final residual = 0.00548104, No Iterations 5
smoothSolver:  Solving for k, Initial residual = 0.227654, Final residual = 0.0144723, No Iterations 6
ExecutionTime = 0.12 s  ClockTime = 0 s

scalarTransport execute: age
smoothSolver:  Solving for age, Initial residual = 0.148132, Final residual = 0.0147295, No Iterations 10

Time = 8

smoothSolver:  Solving for Ux, Initial residual = 0.0322524, Final residual = 0.00296926, No Iterations 5
smoothSolver:  Solving for Uy, Initial residual = 0.0182089, Final residual = 0.00157235, No Iterations 5
GAMG:  Solving for p, Initial residual = 0.0403437, Final residual = 0.00308054, No Iterations 2
time step continuity errors : sum local = 0.00843698, global = -0.000653945, cumulative = 0.00246114
smoothSolver:  Solving for omega, Initial residual = 0.0515132, Final residual = 0.00458514, No Iterations 5
smoothSolver:  Solving for k, Initial residual = 0.194011, Final residual = 0.0127855, No Iterations 6
ExecutionTime = 0.14 s  ClockTime = 0 s

scalarTransport execute: age
smoothSolver:  Solving for age, Initial residual = 0.128624, Final residual = 0.0112863, No Iterations 11

Time = 9

smoothSolver:  Solving for Ux, Initial residual = 0.0305669, Final residual = 0.00288967, No Iterations 5
smoothSolver:  Solving for Uy, Initial residual = 0.0167742, Final residual = 0.00144477, No Iterations 5
GAMG:  Solving for p, Initial residual = 0.0324071, Final residual = 0.00110962, No Iterations 2
time step continuity errors : sum local = 0.00323316, global = -0.000644173, cumulative = 0.00181697
smoothSolver:  Solving for omega, Initial residual = 0.0429225, Final residual = 0.00393256, No Iterations 5
smoothSolver:  Solving for k, Initial residual = 0.168414, Final residual = 0.011443, No Iterations 6
ExecutionTime = 0.15 s  ClockTime = 0 s

scalarTransport execute: age
smoothSolver:  Solving for age, Initial residual = 0.112137, Final residual = 0.0101537, No Iterations 11

Time = 10

smoothSolver:  Solving for Ux, Initial residual = 0.0270907, Final residual = 0.00268039, No Iterations 5
smoothSolver:  Solving for Uy, Initial residual = 0.0157099, Final residual = 0.00140331, No Iterations 5
GAMG:  Solving for p, Initial residual = 0.0272364, Final residual = 0.000776234, No Iterations 2
time step continuity errors : sum local = 0.00229525, global = -0.000470917, cumulative = 0.00134605
smoothSolver:  Solving for omega, Initial residual = 0.0359765, Final residual = 0.00339228, No Iterations 5
smoothSolver:  Solving for k, Initial residual = 0.148443, Final residual = 0.0103399, No Iterations 6
ExecutionTime = 0.16 s  ClockTime = 0 s

scalarTransport execute: age
smoothSolver:  Solving for age, Initial residual = 0.0974953, Final residual = 0.00901054, No Iterations 11

Time = 11

smoothSolver:  Solving for Ux, Initial residual = 0.0251531, Final residual = 0.00166713, No Iterations 6
smoothSolver:  Solving for Uy, Initial residual = 0.0148412, Final residual = 0.00137334, No Iterations 5
GAMG:  Solving for p, Initial residual = 0.0239212, Final residual = 0.000853203, No Iterations 2
time step continuity errors : sum local = 0.00255156, global = -0.000326261, cumulative = 0.00101979
smoothSolver:  Solving for omega, Initial residual = 0.0305785, Final residual = 0.00294764, No Iterations 5
smoothSolver:  Solving for k, Initial residual = 0.132474, Final residual = 0.00941659, No Iterations 6
ExecutionTime = 0.18 s  ClockTime = 0 s

scalarTransport execute: age
smoothSolver:  Solving for age, Initial residual = 0.0851486, Final residual = 0.00808913, No Iterations 11

Time = 12

smoothSolver:  Solving for Ux, Initial residual = 0.0235765, Final residual = 0.00158359, No Iterations 6
smoothSolver:  Solving for Uy, Initial residual = 0.0142587, Final residual = 0.00135127, No Iterations 5
GAMG:  Solving for p, Initial residual = 0.0217948, Final residual = 0.000829202, No Iterations 2
time step continuity errors : sum local = 0.00250208, global = -0.000167309, cumulative = 0.000852479
smoothSolver:  Solving for omega, Initial residual = 0.026305, Final residual = 0.00258322, No Iterations 5
smoothSolver:  Solving for k, Initial residual = 0.119425, Final residual = 0.00863444, No Iterations 6
ExecutionTime = 0.19 s  ClockTime = 0 s

scalarTransport execute: age
smoothSolver:  Solving for age, Initial residual = 0.0741076, Final residual = 0.00729616, No Iterations 11

Time = 13

smoothSolver:  Solving for Ux, Initial residual = 0.0222953, Final residual = 0.0015076, No Iterations 6
smoothSolver:  Solving for Uy, Initial residual = 0.0137953, Final residual = 0.0013334, No Iterations 5
GAMG:  Solving for p, Initial residual = 0.0203383, Final residual = 0.00076381, No Iterations 2
time step continuity errors : sum local = 0.00231766, global = 7.53463e-06, cumulative = 0.000860014
smoothSolver:  Solving for omega, Initial residual = 0.022862, Final residual = 0.00227952, No Iterations 5
smoothSolver:  Solving for k, Initial residual = 0.108601, Final residual = 0.00796429, No Iterations 6
ExecutionTime = 0.2 s  ClockTime = 0 s

scalarTransport execute: age
smoothSolver:  Solving for age, Initial residual = 0.0647962, Final residual = 0.00561065, No Iterations 12

Time = 14

smoothSolver:  Solving for Ux, Initial residual = 0.0210863, Final residual = 0.00143307, No Iterations 6
smoothSolver:  Solving for Uy, Initial residual = 0.0134036, Final residual = 0.00131778, No Iterations 5
GAMG:  Solving for p, Initial residual = 0.0192588, Final residual = 0.000728166, No Iterations 2
time step continuity errors : sum local = 0.0022099, global = 0.000163366, cumulative = 0.00102338
smoothSolver:  Solving for omega, Initial residual = 0.0200634, Final residual = 0.00129459, No Iterations 6
smoothSolver:  Solving for k, Initial residual = 0.0992443, Final residual = 0.0073693, No Iterations 6
ExecutionTime = 0.21 s  ClockTime = 0 s

scalarTransport execute: age
smoothSolver:  Solving for age, Initial residual = 0.0561753, Final residual = 0.00503855, No Iterations 12

Time = 15

smoothSolver:  Solving for Ux, Initial residual = 0.0199149, Final residual = 0.00135593, No Iterations 6
smoothSolver:  Solving for Uy, Initial residual = 0.0130958, Final residual = 0.00129941, No Iterations 5
GAMG:  Solving for p, Initial residual = 0.0183165, Final residual = 0.000706822, No Iterations 2
time step continuity errors : sum local = 0.0021397, global = 0.000279939, cumulative = 0.00130332
smoothSolver:  Solving for omega, Initial residual = 0.0176003, Final residual = 0.00115047, No Iterations 6
smoothSolver:  Solving for k, Initial residual = 0.091165, Final residual = 0.00684502, No Iterations 6
ExecutionTime = 0.23 s  ClockTime = 0 s

scalarTransport execute: age
smoothSolver:  Solving for age, Initial residual = 0.0490771, Final residual = 0.00454024, No Iterations 12

Time = 16

smoothSolver:  Solving for Ux, Initial residual = 0.0188404, Final residual = 0.00128039, No Iterations 6
smoothSolver:  Solving for Uy, Initial residual = 0.0128028, Final residual = 0.00127925, No Iterations 5
GAMG:  Solving for p, Initial residual = 0.0175965, Final residual = 0.000709062, No Iterations 2
time step continuity errors : sum local = 0.0021341, global = 0.000344819, cumulative = 0.00164814
smoothSolver:  Solving for omega, Initial residual = 0.0155589, Final residual = 0.00102863, No Iterations 6
smoothSolver:  Solving for k, Initial residual = 0.084271, Final residual = 0.00638705, No Iterations 6
ExecutionTime = 0.24 s  ClockTime = 0 s

scalarTransport execute: age
smoothSolver:  Solving for age, Initial residual = 0.0430408, Final residual = 0.004074, No Iterations 12

Time = 17

smoothSolver:  Solving for Ux, Initial residual = 0.0178467, Final residual = 0.00121219, No Iterations 6
smoothSolver:  Solving for Uy, Initial residual = 0.0125703, Final residual = 0.000823065, No Iterations 6
GAMG:  Solving for p, Initial residual = 0.016993, Final residual = 0.000702695, No Iterations 2
time step continuity errors : sum local = 0.00209825, global = 0.000370358, cumulative = 0.0020185
smoothSolver:  Solving for omega, Initial residual = 0.0138615, Final residual = 0.000924673, No Iterations 6
smoothSolver:  Solving for k, Initial residual = 0.0783164, Final residual = 0.00598359, No Iterations 6
ExecutionTime = 0.25 s  ClockTime = 0 s

scalarTransport execute: age
smoothSolver:  Solving for age, Initial residual = 0.0381017, Final residual = 0.00363816, No Iterations 12

Time = 18

smoothSolver:  Solving for Ux, Initial residual = 0.0170266, Final residual = 0.00115762, No Iterations 6
smoothSolver:  Solving for Uy, Initial residual = 0.0122782, Final residual = 0.000802998, No Iterations 6
GAMG:  Solving for p, Initial residual = 0.0164124, Final residual = 0.000677311, No Iterations 2
time step continuity errors : sum local = 0.0020039, global = 0.000367844, cumulative = 0.00238634
smoothSolver:  Solving for omega, Initial residual = 0.0124238, Final residual = 0.000835048, No Iterations 6
smoothSolver:  Solving for k, Initial residual = 0.073119, Final residual = 0.00562538, No Iterations 6
ExecutionTime = 0.27 s  ClockTime = 0 s

scalarTransport execute: age
smoothSolver:  Solving for age, Initial residual = 0.0337045, Final residual = 0.00323239, No Iterations 12

Time = 19

smoothSolver:  Solving for Ux, Initial residual = 0.0162596, Final residual = 0.00110769, No Iterations 6
smoothSolver:  Solving for Uy, Initial residual = 0.0120273, Final residual = 0.00120199, No Iterations 5
GAMG:  Solving for p, Initial residual = 0.0158809, Final residual = 0.000635537, No Iterations 2
time step continuity errors : sum local = 0.00186158, global = 0.000349232, cumulative = 0.00273557
smoothSolver:  Solving for omega, Initial residual = 0.0112115, Final residual = 0.00075769, No Iterations 6
smoothSolver:  Solving for k, Initial residual = 0.0685439, Final residual = 0.00530534, No Iterations 6
ExecutionTime = 0.28 s  ClockTime = 0 s

scalarTransport execute: age
smoothSolver:  Solving for age, Initial residual = 0.0299449, Final residual = 0.00285417, No Iterations 12

Time = 20

smoothSolver:  Solving for Ux, Initial residual = 0.0154926, Final residual = 0.00105758, No Iterations 6
smoothSolver:  Solving for Uy, Initial residual = 0.0118637, Final residual = 0.000775563, No Iterations 6
GAMG:  Solving for p, Initial residual = 0.0153032, Final residual = 0.000609546, No Iterations 2
time step continuity errors : sum local = 0.00176701, global = 0.000334699, cumulative = 0.00307027
smoothSolver:  Solving for omega, Initial residual = 0.0101752, Final residual = 0.000690441, No Iterations 6
smoothSolver:  Solving for k, Initial residual = 0.0644812, Final residual = 0.00501731, No Iterations 6
ExecutionTime = 0.29 s  ClockTime = 0 s

scalarTransport execute: age
smoothSolver:  Solving for age, Initial residual = 0.026699, Final residual = 0.00250267, No Iterations 12

Time = 21

smoothSolver:  Solving for Ux, Initial residual = 0.0148923, Final residual = 0.001019, No Iterations 6
smoothSolver:  Solving for Uy, Initial residual = 0.0115887, Final residual = 0.000758065, No Iterations 6
GAMG:  Solving for p, Initial residual = 0.0147818, Final residual = 0.000578849, No Iterations 2
time step continuity errors : sum local = 0.00166108, global = 0.000320851, cumulative = 0.00339112
smoothSolver:  Solving for omega, Initial residual = 0.00927889, Final residual = 0.000631589, No Iterations 6
smoothSolver:  Solving for k, Initial residual = 0.0608471, Final residual = 0.00475662, No Iterations 6
ExecutionTime = 0.31 s  ClockTime = 0 s

scalarTransport execute: age
smoothSolver:  Solving for age, Initial residual = 0.0238795, Final residual = 0.00216474, No Iterations 12

Time = 22

smoothSolver:  Solving for Ux, Initial residual = 0.0143653, Final residual = 0.000985134, No Iterations 6
smoothSolver:  Solving for Uy, Initial residual = 0.0112995, Final residual = 0.000739966, No Iterations 6
GAMG:  Solving for p, Initial residual = 0.0142072, Final residual = 0.000552508, No Iterations 2
time step continuity errors : sum local = 0.00156934, global = 0.0003061, cumulative = 0.00369722
smoothSolver:  Solving for omega, Initial residual = 0.00849669, Final residual = 0.000579885, No Iterations 6
smoothSolver:  Solving for k, Initial residual = 0.0575783, Final residual = 0.00451964, No Iterations 6
ExecutionTime = 0.32 s  ClockTime = 0 s

scalarTransport execute: age
smoothSolver:  Solving for age, Initial residual = 0.0214569, Final residual = 0.00184879, No Iterations 12

Time = 23

smoothSolver:  Solving for Ux, Initial residual = 0.0138929, Final residual = 0.000953656, No Iterations 6
smoothSolver:  Solving for Uy, Initial residual = 0.0110004, Final residual = 0.000722416, No Iterations 6
GAMG:  Solving for p, Initial residual = 0.0135766, Final residual = 0.000530688, No Iterations 2
time step continuity errors : sum local = 0.00149299, global = 0.00029192, cumulative = 0.00398914
smoothSolver:  Solving for omega, Initial residual = 0.00781203, Final residual = 0.000534196, No Iterations 6
smoothSolver:  Solving for k, Initial residual = 0.0546241, Final residual = 0.00430339, No Iterations 6
ExecutionTime = 0.33 s  ClockTime = 0 s

scalarTransport execute: age
smoothSolver:  Solving for age, Initial residual = 0.0193491, Final residual = 0.00186472, No Iterations 11

Time = 24

smoothSolver:  Solving for Ux, Initial residual = 0.0134506, Final residual = 0.000925211, No Iterations 6
smoothSolver:  Solving for Uy, Initial residual = 0.0106876, Final residual = 0.000704768, No Iterations 6
GAMG:  Solving for p, Initial residual = 0.0129245, Final residual = 0.000510714, No Iterations 2
time step continuity errors : sum local = 0.00142455, global = 0.000279571, cumulative = 0.00426871
smoothSolver:  Solving for omega, Initial residual = 0.00720605, Final residual = 0.000493606, No Iterations 6
smoothSolver:  Solving for k, Initial residual = 0.0519392, Final residual = 0.00410516, No Iterations 6
ExecutionTime = 0.34 s  ClockTime = 0 s

scalarTransport execute: age
smoothSolver:  Solving for age, Initial residual = 0.0175094, Final residual = 0.00158501, No Iterations 11

Time = 25

smoothSolver:  Solving for Ux, Initial residual = 0.0130432, Final residual = 0.000899657, No Iterations 6
smoothSolver:  Solving for Uy, Initial residual = 0.0103776, Final residual = 0.000686974, No Iterations 6
GAMG:  Solving for p, Initial residual = 0.0122596, Final residual = 0.000491292, No Iterations 2
time step continuity errors : sum local = 0.00135986, global = 0.000269076, cumulative = 0.00453779
smoothSolver:  Solving for omega, Initial residual = 0.00666548, Final residual = 0.000457375, No Iterations 6
smoothSolver:  Solving for k, Initial residual = 0.0494845, Final residual = 0.00392244, No Iterations 6
ExecutionTime = 0.36 s  ClockTime = 0 s

scalarTransport execute: age
smoothSolver:  Solving for age, Initial residual = 0.0159696, Final residual = 0.00134507, No Iterations 11

Time = 26

smoothSolver:  Solving for Ux, Initial residual = 0.0126897, Final residual = 0.000877499, No Iterations 6
smoothSolver:  Solving for Uy, Initial residual = 0.0100646, Final residual = 0.000668331, No Iterations 6
GAMG:  Solving for p, Initial residual = 0.0115922, Final residual = 0.000471632, No Iterations 2
time step continuity errors : sum local = 0.0012959, global = 0.000259801, cumulative = 0.00479759
smoothSolver:  Solving for omega, Initial residual = 0.00618541, Final residual = 0.000424914, No Iterations 6
smoothSolver:  Solving for k, Initial residual = 0.0472333, Final residual = 0.00375353, No Iterations 6
ExecutionTime = 0.37 s  ClockTime = 0 s

scalarTransport execute: age
smoothSolver:  Solving for age, Initial residual = 0.0146528, Final residual = 0.00137605, No Iterations 10

Time = 27

smoothSolver:  Solving for Ux, Initial residual = 0.0123781, Final residual = 0.000858774, No Iterations 6
smoothSolver:  Solving for Uy, Initial residual = 0.0097677, Final residual = 0.000649535, No Iterations 6
GAMG:  Solving for p, Initial residual = 0.0109876, Final residual = 0.000450568, No Iterations 2
time step continuity errors : sum local = 0.00122977, global = 0.000251068, cumulative = 0.00504866
smoothSolver:  Solving for omega, Initial residual = 0.00575642, Final residual = 0.000395741, No Iterations 6
smoothSolver:  Solving for k, Initial residual = 0.045155, Final residual = 0.00359656, No Iterations 6
ExecutionTime = 0.38 s  ClockTime = 0 s

scalarTransport execute: age
smoothSolver:  Solving for age, Initial residual = 0.0136189, Final residual = 0.00122247, No Iterations 10

Time = 28

smoothSolver:  Solving for Ux, Initial residual = 0.0121009, Final residual = 0.000843109, No Iterations 6
smoothSolver:  Solving for Uy, Initial residual = 0.00948507, Final residual = 0.000630333, No Iterations 6
GAMG:  Solving for p, Initial residual = 0.0107581, Final residual = 0.000429679, No Iterations 2
time step continuity errors : sum local = 0.0011662, global = 0.000242782, cumulative = 0.00529144
smoothSolver:  Solving for omega, Initial residual = 0.00538053, Final residual = 0.000369251, No Iterations 6
smoothSolver:  Solving for k, Initial residual = 0.043234, Final residual = 0.00345032, No Iterations 6
ExecutionTime = 0.4 s  ClockTime = 0 s

scalarTransport execute: age
smoothSolver:  Solving for age, Initial residual = 0.0128404, Final residual = 0.00110974, No Iterations 10

Time = 29

smoothSolver:  Solving for Ux, Initial residual = 0.0118576, Final residual = 0.000830736, No Iterations 6
smoothSolver:  Solving for Uy, Initial residual = 0.00922893, Final residual = 0.000610572, No Iterations 6
GAMG:  Solving for p, Initial residual = 0.0107529, Final residual = 0.000410349, No Iterations 2
time step continuity errors : sum local = 0.00110818, global = 0.000235385, cumulative = 0.00552683
smoothSolver:  Solving for omega, Initial residual = 0.00503739, Final residual = 0.000345477, No Iterations 6
smoothSolver:  Solving for k, Initial residual = 0.0414414, Final residual = 0.00331317, No Iterations 6
ExecutionTime = 0.41 s  ClockTime = 0 s

scalarTransport execute: age
smoothSolver:  Solving for age, Initial residual = 0.0121868, Final residual = 0.00103018, No Iterations 10

Time = 30

smoothSolver:  Solving for Ux, Initial residual = 0.0116774, Final residual = 0.000821366, No Iterations 6
smoothSolver:  Solving for Uy, Initial residual = 0.0089786, Final residual = 0.000590873, No Iterations 6
GAMG:  Solving for p, Initial residual = 0.0109067, Final residual = 0.000398887, No Iterations 2
time step continuity errors : sum local = 0.00107282, global = 0.000229421, cumulative = 0.00575625
smoothSolver:  Solving for omega, Initial residual = 0.00473212, Final residual = 0.000323946, No Iterations 6
smoothSolver:  Solving for k, Initial residual = 0.0397667, Final residual = 0.0031843, No Iterations 6
ExecutionTime = 0.42 s  ClockTime = 0 s

scalarTransport execute: age
smoothSolver:  Solving for age, Initial residual = 0.011694, Final residual = 0.00116903, No Iterations 9

Time = 31

smoothSolver:  Solving for Ux, Initial residual = 0.0115689, Final residual = 0.000815019, No Iterations 6
smoothSolver:  Solving for Uy, Initial residual = 0.00872132, Final residual = 0.000570629, No Iterations 6
GAMG:  Solving for p, Initial residual = 0.010969, Final residual = 0.000404442, No Iterations 2
time step continuity errors : sum local = 0.00108132, global = 0.000224437, cumulative = 0.00598068
smoothSolver:  Solving for omega, Initial residual = 0.00445408, Final residual = 0.000304277, No Iterations 6
smoothSolver:  Solving for k, Initial residual = 0.0381985, Final residual = 0.00306308, No Iterations 6
ExecutionTime = 0.43 s  ClockTime = 0 s

scalarTransport execute: age
smoothSolver:  Solving for age, Initial residual = 0.0113164, Final residual = 0.000981818, No Iterations 10

Time = 32

smoothSolver:  Solving for Ux, Initial residual = 0.0115139, Final residual = 0.000810921, No Iterations 6
smoothSolver:  Solving for Uy, Initial residual = 0.00845968, Final residual = 0.000845058, No Iterations 5
GAMG:  Solving for p, Initial residual = 0.0109464, Final residual = 0.000414478, No Iterations 2
time step continuity errors : sum local = 0.00110242, global = 0.000218475, cumulative = 0.00619916
smoothSolver:  Solving for omega, Initial residual = 0.00420188, Final residual = 0.000286303, No Iterations 6
smoothSolver:  Solving for k, Initial residual = 0.0367235, Final residual = 0.00294862, No Iterations 6
ExecutionTime = 0.45 s  ClockTime = 0 s

scalarTransport execute: age
smoothSolver:  Solving for age, Initial residual = 0.0110721, Final residual = 0.000980726, No Iterations 10

Time = 33

smoothSolver:  Solving for Ux, Initial residual = 0.011473, Final residual = 0.000807138, No Iterations 6
smoothSolver:  Solving for Uy, Initial residual = 0.00825005, Final residual = 0.000822667, No Iterations 5
GAMG:  Solving for p, Initial residual = 0.0107855, Final residual = 0.000424192, No Iterations 2
time step continuity errors : sum local = 0.00112297, global = 0.000212534, cumulative = 0.00641169
smoothSolver:  Solving for omega, Initial residual = 0.00397106, Final residual = 0.000269838, No Iterations 6
smoothSolver:  Solving for k, Initial residual = 0.0353273, Final residual = 0.00284015, No Iterations 6
ExecutionTime = 0.46 s  ClockTime = 0 s

scalarTransport execute: age
smoothSolver:  Solving for age, Initial residual = 0.0108826, Final residual = 0.000991631, No Iterations 10

Time = 34

smoothSolver:  Solving for Ux, Initial residual = 0.0114867, Final residual = 0.000806189, No Iterations 6
smoothSolver:  Solving for Uy, Initial residual = 0.00800195, Final residual = 0.000795112, No Iterations 5
GAMG:  Solving for p, Initial residual = 0.0105626, Final residual = 0.000430375, No Iterations 2
time step continuity errors : sum local = 0.00113489, global = 0.000206776, cumulative = 0.00661847
smoothSolver:  Solving for omega, Initial residual = 0.00375806, Final residual = 0.000254677, No Iterations 6
smoothSolver:  Solving for k, Initial residual = 0.0340068, Final residual = 0.00273738, No Iterations 6
ExecutionTime = 0.47 s  ClockTime = 0 s

scalarTransport execute: age
smoothSolver:  Solving for age, Initial residual = 0.0107201, Final residual = 0.00100802, No Iterations 10

Time = 35

smoothSolver:  Solving for Ux, Initial residual = 0.0115286, Final residual = 0.000807728, No Iterations 6
smoothSolver:  Solving for Uy, Initial residual = 0.00770332, Final residual = 0.000763267, No Iterations 5
GAMG:  Solving for p, Initial residual = 0.0103406, Final residual = 0.000426136, No Iterations 2
time step continuity errors : sum local = 0.00111977, global = 0.000195487, cumulative = 0.00681396
smoothSolver:  Solving for omega, Initial residual = 0.00356211, Final residual = 0.000240659, No Iterations 6
smoothSolver:  Solving for k, Initial residual = 0.0327559, Final residual = 0.00263989, No Iterations 6
ExecutionTime = 0.49 s  ClockTime = 0 s

scalarTransport execute: age
smoothSolver:  Solving for age, Initial residual = 0.0106296, Final residual = 0.00101924, No Iterations 10

Time = 36

smoothSolver:  Solving for Ux, Initial residual = 0.0116009, Final residual = 0.00081143, No Iterations 6
smoothSolver:  Solving for Uy, Initial residual = 0.00738154, Final residual = 0.000729287, No Iterations 5
GAMG:  Solving for p, Initial residual = 0.010051, Final residual = 0.000420142, No Iterations 2
time step continuity errors : sum local = 0.00109878, global = 0.000184529, cumulative = 0.00699848
smoothSolver:  Solving for omega, Initial residual = 0.00338009, Final residual = 0.000227652, No Iterations 6
smoothSolver:  Solving for k, Initial residual = 0.0315719, Final residual = 0.00254744, No Iterations 6
ExecutionTime = 0.5 s  ClockTime = 0 s

scalarTransport execute: age
smoothSolver:  Solving for age, Initial residual = 0.0105821, Final residual = 0.00102983, No Iterations 10

Time = 37

smoothSolver:  Solving for Ux, Initial residual = 0.0116679, Final residual = 0.000815235, No Iterations 6
smoothSolver:  Solving for Uy, Initial residual = 0.00705786, Final residual = 0.000695443, No Iterations 5
GAMG:  Solving for p, Initial residual = 0.0097597, Final residual = 0.000412007, No Iterations 2
time step continuity errors : sum local = 0.00107343, global = 0.000174434, cumulative = 0.00717292
smoothSolver:  Solving for omega, Initial residual = 0.00321705, Final residual = 0.000215529, No Iterations 6
smoothSolver:  Solving for k, Initial residual = 0.0304495, Final residual = 0.00245975, No Iterations 6
ExecutionTime = 0.51 s  ClockTime = 0 s

scalarTransport execute: age
smoothSolver:  Solving for age, Initial residual = 0.0105261, Final residual = 0.00104277, No Iterations 10

Time = 38

smoothSolver:  Solving for Ux, Initial residual = 0.0117244, Final residual = 0.000819269, No Iterations 6
smoothSolver:  Solving for Uy, Initial residual = 0.00674504, Final residual = 0.000662768, No Iterations 5
GAMG:  Solving for p, Initial residual = 0.00955412, Final residual = 0.000407726, No Iterations 2
time step continuity errors : sum local = 0.00105902, global = 0.000165575, cumulative = 0.00733849
smoothSolver:  Solving for omega, Initial residual = 0.00306088, Final residual = 0.00020427, No Iterations 6
smoothSolver:  Solving for k, Initial residual = 0.0293825, Final residual = 0.00237649, No Iterations 6
ExecutionTime = 0.52 s  ClockTime = 0 s

scalarTransport execute: age
smoothSolver:  Solving for age, Initial residual = 0.0104623, Final residual = 0.000894219, No Iterations 11

Time = 39

smoothSolver:  Solving for Ux, Initial residual = 0.011771, Final residual = 0.00082311, No Iterations 6
smoothSolver:  Solving for Uy, Initial residual = 0.006462, Final residual = 0.000632264, No Iterations 5
GAMG:  Solving for p, Initial residual = 0.00946951, Final residual = 0.000414357, No Iterations 2
time step continuity errors : sum local = 0.00107365, global = 0.000158462, cumulative = 0.00749696
smoothSolver:  Solving for omega, Initial residual = 0.00290843, Final residual = 0.000193517, No Iterations 6
smoothSolver:  Solving for k, Initial residual = 0.0283717, Final residual = 0.00229757, No Iterations 6
ExecutionTime = 0.54 s  ClockTime = 0 s

scalarTransport execute: age
smoothSolver:  Solving for age, Initial residual = 0.0103903, Final residual = 0.00090342, No Iterations 11

Time = 40

smoothSolver:  Solving for Ux, Initial residual = 0.0118123, Final residual = 0.000826385, No Iterations 6
smoothSolver:  Solving for Uy, Initial residual = 0.00620254, Final residual = 0.000604202, No Iterations 5
GAMG:  Solving for p, Initial residual = 0.00940007, Final residual = 0.00043207, No Iterations 2
time step continuity errors : sum local = 0.00111784, global = 0.00015349, cumulative = 0.00765045
smoothSolver:  Solving for omega, Initial residual = 0.00277792, Final residual = 0.000183369, No Iterations 6
smoothSolver:  Solving for k, Initial residual = 0.0274173, Final residual = 0.0022227, No Iterations 6
ExecutionTime = 0.55 s  ClockTime = 0 s

scalarTransport execute: age
smoothSolver:  Solving for age, Initial residual = 0.0103391, Final residual = 0.000917692, No Iterations 11

Time = 41

smoothSolver:  Solving for Ux, Initial residual = 0.0118814, Final residual = 0.00082929, No Iterations 6
smoothSolver:  Solving for Uy, Initial residual = 0.00596186, Final residual = 0.000578827, No Iterations 5
GAMG:  Solving for p, Initial residual = 0.00933286, Final residual = 0.000457676, No Iterations 2
time step continuity errors : sum local = 0.00118313, global = 0.000150731, cumulative = 0.00780118
smoothSolver:  Solving for omega, Initial residual = 0.0026512, Final residual = 0.000173969, No Iterations 6
smoothSolver:  Solving for k, Initial residual = 0.0265137, Final residual = 0.00215149, No Iterations 6
ExecutionTime = 0.56 s  ClockTime = 0 s

scalarTransport execute: age
smoothSolver:  Solving for age, Initial residual = 0.0102576, Final residual = 0.000936493, No Iterations 11

Time = 42

smoothSolver:  Solving for Ux, Initial residual = 0.0119716, Final residual = 0.00083206, No Iterations 6
smoothSolver:  Solving for Uy, Initial residual = 0.00574434, Final residual = 0.000556512, No Iterations 5
GAMG:  Solving for p, Initial residual = 0.00928533, Final residual = 0.000488925, No Iterations 2
time step continuity errors : sum local = 0.00126303, global = 0.000154495, cumulative = 0.00795567
smoothSolver:  Solving for omega, Initial residual = 0.0025336, Final residual = 0.0001652, No Iterations 6
smoothSolver:  Solving for k, Initial residual = 0.0256573, Final residual = 0.0020836, No Iterations 6
ExecutionTime = 0.58 s  ClockTime = 0 s

scalarTransport execute: age
smoothSolver:  Solving for age, Initial residual = 0.0101897, Final residual = 0.000956089, No Iterations 11

Time = 43

smoothSolver:  Solving for Ux, Initial residual = 0.0120474, Final residual = 0.000834027, No Iterations 6
smoothSolver:  Solving for Uy, Initial residual = 0.00556069, Final residual = 0.000537573, No Iterations 5
GAMG:  Solving for p, Initial residual = 0.0092752, Final residual = 0.00051484, No Iterations 2
time step continuity errors : sum local = 0.00133017, global = 0.00016008, cumulative = 0.00811575
smoothSolver:  Solving for omega, Initial residual = 0.00242477, Final residual = 0.000241859, No Iterations 5
smoothSolver:  Solving for k, Initial residual = 0.0248648, Final residual = 0.00202033, No Iterations 6
ExecutionTime = 0.59 s  ClockTime = 0 s

scalarTransport execute: age
smoothSolver:  Solving for age, Initial residual = 0.0101178, Final residual = 0.000971838, No Iterations 11

Time = 44

smoothSolver:  Solving for Ux, Initial residual = 0.0121316, Final residual = 0.000837075, No Iterations 6
smoothSolver:  Solving for Uy, Initial residual = 0.00541245, Final residual = 0.000522374, No Iterations 5
GAMG:  Solving for p, Initial residual = 0.00930427, Final residual = 0.000539891, No Iterations 2
time step continuity errors : sum local = 0.00139574, global = 0.000167115, cumulative = 0.00828287
smoothSolver:  Solving for omega, Initial residual = 0.00233346, Final residual = 0.000231064, No Iterations 5
smoothSolver:  Solving for k, Initial residual = 0.0241216, Final residual = 0.0019605, No Iterations 6
ExecutionTime = 0.6 s  ClockTime = 0 s

scalarTransport execute: age
smoothSolver:  Solving for age, Initial residual = 0.0100776, Final residual = 0.000997307, No Iterations 11

Time = 45

smoothSolver:  Solving for Ux, Initial residual = 0.012209, Final residual = 0.00084054, No Iterations 6
smoothSolver:  Solving for Uy, Initial residual = 0.00529694, Final residual = 0.000510732, No Iterations 5
GAMG:  Solving for p, Initial residual = 0.00935171, Final residual = 0.000561492, No Iterations 2
time step continuity errors : sum local = 0.00145291, global = 0.000174624, cumulative = 0.00845749
smoothSolver:  Solving for omega, Initial residual = 0.00224849, Final residual = 0.000220827, No Iterations 5
smoothSolver:  Solving for k, Initial residual = 0.0234126, Final residual = 0.00190317, No Iterations 6
ExecutionTime = 0.61 s  ClockTime = 0 s

scalarTransport execute: age
smoothSolver:  Solving for age, Initial residual = 0.010026, Final residual = 0.000897614, No Iterations 12

Time = 46

smoothSolver:  Solving for Ux, Initial residual = 0.0122768, Final residual = 0.000844295, No Iterations 6
smoothSolver:  Solving for Uy, Initial residual = 0.00521016, Final residual = 0.000502744, No Iterations 5
GAMG:  Solving for p, Initial residual = 0.00938904, Final residual = 0.000579368, No Iterations 2
time step continuity errors : sum local = 0.00150094, global = 0.000181306, cumulative = 0.0086388
smoothSolver:  Solving for omega, Initial residual = 0.0021693, Final residual = 0.000211081, No Iterations 5
smoothSolver:  Solving for k, Initial residual = 0.0227341, Final residual = 0.00184808, No Iterations 6
ExecutionTime = 0.63 s  ClockTime = 0 s

scalarTransport execute: age
smoothSolver:  Solving for age, Initial residual = 0.0102073, Final residual = 0.000949281, No Iterations 12

Time = 47

smoothSolver:  Solving for Ux, Initial residual = 0.0123476, Final residual = 0.000848507, No Iterations 6
smoothSolver:  Solving for Uy, Initial residual = 0.00515674, Final residual = 0.000498892, No Iterations 5
GAMG:  Solving for p, Initial residual = 0.00940726, Final residual = 0.000595549, No Iterations 2
time step continuity errors : sum local = 0.00154371, global = 0.000186966, cumulative = 0.00882576
smoothSolver:  Solving for omega, Initial residual = 0.00209677, Final residual = 0.000201865, No Iterations 5
smoothSolver:  Solving for k, Initial residual = 0.0220861, Final residual = 0.00179522, No Iterations 6
ExecutionTime = 0.64 s  ClockTime = 0 s

scalarTransport execute: age
smoothSolver:  Solving for age, Initial residual = 0.0104096, Final residual = 0.000984401, No Iterations 12

Time = 48

smoothSolver:  Solving for Ux, Initial residual = 0.0124131, Final residual = 0.000853138, No Iterations 6
smoothSolver:  Solving for Uy, Initial residual = 0.00513669, Final residual = 0.000499445, No Iterations 5
GAMG:  Solving for p, Initial residual = 0.00945973, Final residual = 0.000608057, No Iterations 2
time step continuity errors : sum local = 0.00157588, global = 0.000189201, cumulative = 0.00901496
smoothSolver:  Solving for omega, Initial residual = 0.00202718, Final residual = 0.000193218, No Iterations 5
smoothSolver:  Solving for k, Initial residual = 0.021468, Final residual = 0.00174457, No Iterations 6
ExecutionTime = 0.65 s  ClockTime = 0 s

scalarTransport execute: age
smoothSolver:  Solving for age, Initial residual = 0.0106416, Final residual = 0.0010085, No Iterations 12

Time = 49

smoothSolver:  Solving for Ux, Initial residual = 0.01249, Final residual = 0.000858277, No Iterations 6
smoothSolver:  Solving for Uy, Initial residual = 0.00514645, Final residual = 0.00050354, No Iterations 5
GAMG:  Solving for p, Initial residual = 0.00951502, Final residual = 0.000620248, No Iterations 2
time step continuity errors : sum local = 0.00160825, global = 0.000189613, cumulative = 0.00920458
smoothSolver:  Solving for omega, Initial residual = 0.00195802, Final residual = 0.000184965, No Iterations 5
smoothSolver:  Solving for k, Initial residual = 0.0208754, Final residual = 0.00169593, No Iterations 6
ExecutionTime = 0.67 s  ClockTime = 0 s

scalarTransport execute: age
smoothSolver:  Solving for age, Initial residual = 0.0112717, Final residual = 0.00109028, No Iterations 11

Time = 50

smoothSolver:  Solving for Ux, Initial residual = 0.0125716, Final residual = 0.000863741, No Iterations 6
smoothSolver:  Solving for Uy, Initial residual = 0.00518152, Final residual = 0.000510745, No Iterations 5
GAMG:  Solving for p, Initial residual = 0.00951886, Final residual = 0.000633296, No Iterations 2
time step continuity errors : sum local = 0.00164359, global = 0.000188563, cumulative = 0.00939314
smoothSolver:  Solving for omega, Initial residual = 0.00189204, Final residual = 0.000177172, No Iterations 5
smoothSolver:  Solving for k, Initial residual = 0.0203055, Final residual = 0.00164909, No Iterations 6
ExecutionTime = 0.68 s  ClockTime = 0 s

scalarTransport execute: age
smoothSolver:  Solving for age, Initial residual = 0.010779, Final residual = 0.000952622, No Iterations 12

Time = 51

smoothSolver:  Solving for Ux, Initial residual = 0.0126476, Final residual = 0.000869344, No Iterations 6
smoothSolver:  Solving for Uy, Initial residual = 0.00524014, Final residual = 0.000520478, No Iterations 5
GAMG:  Solving for p, Initial residual = 0.00952649, Final residual = 0.000641649, No Iterations 2
time step continuity errors : sum local = 0.00166665, global = 0.000187048, cumulative = 0.00958019
smoothSolver:  Solving for omega, Initial residual = 0.00183129, Final residual = 0.000169932, No Iterations 5
smoothSolver:  Solving for k, Initial residual = 0.0197577, Final residual = 0.00160394, No Iterations 6
ExecutionTime = 0.69 s  ClockTime = 0 s

scalarTransport execute: age
smoothSolver:  Solving for age, Initial residual = 0.0108515, Final residual = 0.000985501, No Iterations 12

Time = 52

smoothSolver:  Solving for Ux, Initial residual = 0.0127148, Final residual = 0.00087469, No Iterations 6
smoothSolver:  Solving for Uy, Initial residual = 0.00530217, Final residual = 0.000346585, No Iterations 6
GAMG:  Solving for p, Initial residual = 0.00976213, Final residual = 0.000642073, No Iterations 2
time step continuity errors : sum local = 0.00167065, global = 0.000185612, cumulative = 0.0097658
smoothSolver:  Solving for omega, Initial residual = 0.0017733, Final residual = 0.000163104, No Iterations 5
smoothSolver:  Solving for k, Initial residual = 0.0192299, Final residual = 0.00156041, No Iterations 6
ExecutionTime = 0.7 s  ClockTime = 0 s

scalarTransport execute: age
smoothSolver:  Solving for age, Initial residual = 0.011135, Final residual = 0.00101869, No Iterations 12

Time = 53

smoothSolver:  Solving for Ux, Initial residual = 0.0127885, Final residual = 0.000880068, No Iterations 6
smoothSolver:  Solving for Uy, Initial residual = 0.00532977, Final residual = 0.000351589, No Iterations 6
GAMG:  Solving for p, Initial residual = 0.0101042, Final residual = 0.000651887, No Iterations 2
time step continuity errors : sum local = 0.00170438, global = 0.000185198, cumulative = 0.009951
smoothSolver:  Solving for omega, Initial residual = 0.00172044, Final residual = 0.000156592, No Iterations 5
smoothSolver:  Solving for k, Initial residual = 0.0187216, Final residual = 0.00151833, No Iterations 6
ExecutionTime = 0.72 s  ClockTime = 0 s

scalarTransport execute: age
smoothSolver:  Solving for age, Initial residual = 0.0114386, Final residual = 0.00105748, No Iterations 12

Time = 54

smoothSolver:  Solving for Ux, Initial residual = 0.0128373, Final residual = 0.000884128, No Iterations 6
smoothSolver:  Solving for Uy, Initial residual = 0.00540261, Final residual = 0.000359759, No Iterations 6
GAMG:  Solving for p, Initial residual = 0.0105891, Final residual = 0.000663391, No Iterations 2
time step continuity errors : sum local = 0.00175684, global = 0.000186488, cumulative = 0.0101375
smoothSolver:  Solving for omega, Initial residual = 0.00166912, Final residual = 0.000150274, No Iterations 5
smoothSolver:  Solving for k, Initial residual = 0.0182316, Final residual = 0.00147757, No Iterations 6
ExecutionTime = 0.73 s  ClockTime = 0 s

scalarTransport execute: age
smoothSolver:  Solving for age, Initial residual = 0.0117226, Final residual = 0.00109751, No Iterations 12

Time = 55

smoothSolver:  Solving for Ux, Initial residual = 0.0128563, Final residual = 0.000886949, No Iterations 6
smoothSolver:  Solving for Uy, Initial residual = 0.00552475, Final residual = 0.000370651, No Iterations 6
GAMG:  Solving for p, Initial residual = 0.0108371, Final residual = 0.000691481, No Iterations 2
time step continuity errors : sum local = 0.00182539, global = 0.000193729, cumulative = 0.0103312
smoothSolver:  Solving for omega, Initial residual = 0.00161279, Final residual = 0.000144299, No Iterations 5
smoothSolver:  Solving for k, Initial residual = 0.0177563, Final residual = 0.00143812, No Iterations 6
ExecutionTime = 0.74 s  ClockTime = 0 s

scalarTransport execute: age
smoothSolver:  Solving for age, Initial residual = 0.0120212, Final residual = 0.00115176, No Iterations 12

Time = 56

smoothSolver:  Solving for Ux, Initial residual = 0.0128654, Final residual = 0.000889242, No Iterations 6
smoothSolver:  Solving for Uy, Initial residual = 0.00566871, Final residual = 0.000383676, No Iterations 6
GAMG:  Solving for p, Initial residual = 0.0110417, Final residual = 0.000710763, No Iterations 2
time step continuity errors : sum local = 0.00185702, global = 0.000202518, cumulative = 0.0105337
smoothSolver:  Solving for omega, Initial residual = 0.00156037, Final residual = 0.000138532, No Iterations 5
smoothSolver:  Solving for k, Initial residual = 0.0172996, Final residual = 0.00140001, No Iterations 6
ExecutionTime = 0.76 s  ClockTime = 0 s

scalarTransport execute: age
smoothSolver:  Solving for age, Initial residual = 0.0124573, Final residual = 0.00121694, No Iterations 12

Time = 57

smoothSolver:  Solving for Ux, Initial residual = 0.0128878, Final residual = 0.000890766, No Iterations 6
smoothSolver:  Solving for Uy, Initial residual = 0.00582727, Final residual = 0.000397911, No Iterations 6
GAMG:  Solving for p, Initial residual = 0.0109283, Final residual = 0.000673133, No Iterations 2
time step continuity errors : sum local = 0.00173553, global = 0.000210184, cumulative = 0.0107439
smoothSolver:  Solving for omega, Initial residual = 0.00152428, Final residual = 0.000132443, No Iterations 5
smoothSolver:  Solving for k, Initial residual = 0.016851, Final residual = 0.00136315, No Iterations 6
ExecutionTime = 0.77 s  ClockTime = 0 s

scalarTransport execute: age
smoothSolver:  Solving for age, Initial residual = 0.012801, Final residual = 0.00126159, No Iterations 12

Time = 58

smoothSolver:  Solving for Ux, Initial residual = 0.0128741, Final residual = 0.000891911, No Iterations 6
smoothSolver:  Solving for Uy, Initial residual = 0.0060193, Final residual = 0.000413606, No Iterations 6
GAMG:  Solving for p, Initial residual = 0.0108921, Final residual = 0.000684493, No Iterations 2
time step continuity errors : sum local = 0.0017545, global = 0.00021793, cumulative = 0.0109618
smoothSolver:  Solving for omega, Initial residual = 0.00145998, Final residual = 0.000127055, No Iterations 5
smoothSolver:  Solving for k, Initial residual = 0.0164203, Final residual = 0.00132741, No Iterations 6
ExecutionTime = 0.78 s  ClockTime = 0 s

scalarTransport execute: age
smoothSolver:  Solving for age, Initial residual = 0.0133405, Final residual = 0.00133024, No Iterations 12

Time = 59

smoothSolver:  Solving for Ux, Initial residual = 0.0128425, Final residual = 0.000892937, No Iterations 6
smoothSolver:  Solving for Uy, Initial residual = 0.00620701, Final residual = 0.00042867, No Iterations 6
GAMG:  Solving for p, Initial residual = 0.0108946, Final residual = 0.000700082, No Iterations 2
time step continuity errors : sum local = 0.00178765, global = 0.000224566, cumulative = 0.0111864
smoothSolver:  Solving for omega, Initial residual = 0.00140682, Final residual = 0.000121995, No Iterations 5
smoothSolver:  Solving for k, Initial residual = 0.0160029, Final residual = 0.00129285, No Iterations 6
ExecutionTime = 0.79 s  ClockTime = 0 s

scalarTransport execute: age
smoothSolver:  Solving for age, Initial residual = 0.0138641, Final residual = 0.00119847, No Iterations 13

Time = 60

smoothSolver:  Solving for Ux, Initial residual = 0.0128207, Final residual = 0.000892433, No Iterations 6
smoothSolver:  Solving for Uy, Initial residual = 0.00638853, Final residual = 0.000443438, No Iterations 6
GAMG:  Solving for p, Initial residual = 0.0109013, Final residual = 0.000714873, No Iterations 2
time step continuity errors : sum local = 0.0018197, global = 0.000229573, cumulative = 0.011416
smoothSolver:  Solving for omega, Initial residual = 0.00136543, Final residual = 0.000117181, No Iterations 5
smoothSolver:  Solving for k, Initial residual = 0.0156004, Final residual = 0.00125948, No Iterations 6
ExecutionTime = 0.81 s  ClockTime = 0 s

scalarTransport execute: age
smoothSolver:  Solving for age, Initial residual = 0.0146213, Final residual = 0.00144814, No Iterations 12

Time = 61

smoothSolver:  Solving for Ux, Initial residual = 0.0127659, Final residual = 0.000890125, No Iterations 6
smoothSolver:  Solving for Uy, Initial residual = 0.00656502, Final residual = 0.000457781, No Iterations 6
GAMG:  Solving for p, Initial residual = 0.0108083, Final residual = 0.000729831, No Iterations 2
time step continuity errors : sum local = 0.00185579, global = 0.000232934, cumulative = 0.0116489
smoothSolver:  Solving for omega, Initial residual = 0.00132092, Final residual = 0.000112674, No Iterations 5
smoothSolver:  Solving for k, Initial residual = 0.0152126, Final residual = 0.00122721, No Iterations 6
ExecutionTime = 0.82 s  ClockTime = 0 s

scalarTransport execute: age
smoothSolver:  Solving for age, Initial residual = 0.0152445, Final residual = 0.00151076, No Iterations 12

Time = 62

smoothSolver:  Solving for Ux, Initial residual = 0.0126953, Final residual = 0.000886731, No Iterations 6
smoothSolver:  Solving for Uy, Initial residual = 0.00672942, Final residual = 0.000471487, No Iterations 6
GAMG:  Solving for p, Initial residual = 0.0106848, Final residual = 0.000745471, No Iterations 2
time step continuity errors : sum local = 0.0018918, global = 0.000234065, cumulative = 0.011883
smoothSolver:  Solving for omega, Initial residual = 0.00127729, Final residual = 0.000108398, No Iterations 5
smoothSolver:  Solving for k, Initial residual = 0.0148368, Final residual = 0.001196, No Iterations 6
ExecutionTime = 0.83 s  ClockTime = 0 s

scalarTransport execute: age
smoothSolver:  Solving for age, Initial residual = 0.0160408, Final residual = 0.00157161, No Iterations 12

Time = 63

smoothSolver:  Solving for Ux, Initial residual = 0.0126091, Final residual = 0.000882466, No Iterations 6
smoothSolver:  Solving for Uy, Initial residual = 0.00687506, Final residual = 0.000484353, No Iterations 6
GAMG:  Solving for p, Initial residual = 0.0104852, Final residual = 0.000755922, No Iterations 2
time step continuity errors : sum local = 0.00191448, global = 0.000233289, cumulative = 0.0121163
smoothSolver:  Solving for omega, Initial residual = 0.00123672, Final residual = 0.000104345, No Iterations 5
smoothSolver:  Solving for k, Initial residual = 0.0144729, Final residual = 0.00116579, No Iterations 6
ExecutionTime = 0.85 s  ClockTime = 0 s

scalarTransport execute: age
smoothSolver:  Solving for age, Initial residual = 0.0169593, Final residual = 0.00168885, No Iterations 12

Time = 64

smoothSolver:  Solving for Ux, Initial residual = 0.0125251, Final residual = 0.000877216, No Iterations 6
smoothSolver:  Solving for Uy, Initial residual = 0.00699864, Final residual = 0.000496178, No Iterations 6
GAMG:  Solving for p, Initial residual = 0.0100784, Final residual = 0.000740179, No Iterations 2
time step continuity errors : sum local = 0.00186729, global = 0.000230817, cumulative = 0.0123471
smoothSolver:  Solving for omega, Initial residual = 0.00118896, Final residual = 0.000100575, No Iterations 5
smoothSolver:  Solving for k, Initial residual = 0.0141244, Final residual = 0.00113666, No Iterations 6
ExecutionTime = 0.86 s  ClockTime = 0 s

scalarTransport execute: age
smoothSolver:  Solving for age, Initial residual = 0.0179396, Final residual = 0.00165428, No Iterations 12

Time = 65

smoothSolver:  Solving for Ux, Initial residual = 0.0124118, Final residual = 0.000871933, No Iterations 6
smoothSolver:  Solving for Uy, Initial residual = 0.00709601, Final residual = 0.000506772, No Iterations 6
GAMG:  Solving for p, Initial residual = 0.00971448, Final residual = 0.000721967, No Iterations 2
time step continuity errors : sum local = 0.00181435, global = 0.000226561, cumulative = 0.0125737
smoothSolver:  Solving for omega, Initial residual = 0.00115143, Final residual = 9.71385e-05, No Iterations 5
smoothSolver:  Solving for k, Initial residual = 0.0137861, Final residual = 0.00110845, No Iterations 6
ExecutionTime = 0.87 s  ClockTime = 0 s

scalarTransport execute: age
smoothSolver:  Solving for age, Initial residual = 0.0185803, Final residual = 0.00166699, No Iterations 12

Time = 66

smoothSolver:  Solving for Ux, Initial residual = 0.0122964, Final residual = 0.000867012, No Iterations 6
smoothSolver:  Solving for Uy, Initial residual = 0.00717155, Final residual = 0.000515932, No Iterations 6
GAMG:  Solving for p, Initial residual = 0.00943611, Final residual = 0.000705717, No Iterations 2
time step continuity errors : sum local = 0.0017651, global = 0.000220962, cumulative = 0.0127946
smoothSolver:  Solving for omega, Initial residual = 0.00111946, Final residual = 9.39414e-05, No Iterations 5
smoothSolver:  Solving for k, Initial residual = 0.0134575, Final residual = 0.00108116, No Iterations 6
ExecutionTime = 0.89 s  ClockTime = 0 s

scalarTransport execute: age
smoothSolver:  Solving for age, Initial residual = 0.0190153, Final residual = 0.00163255, No Iterations 12

Time = 67

smoothSolver:  Solving for Ux, Initial residual = 0.0121863, Final residual = 0.00086223, No Iterations 6
smoothSolver:  Solving for Uy, Initial residual = 0.00722417, Final residual = 0.000523701, No Iterations 6
GAMG:  Solving for p, Initial residual = 0.00924611, Final residual = 0.00068886, No Iterations 2
time step continuity errors : sum local = 0.00171484, global = 0.000214533, cumulative = 0.0130091
smoothSolver:  Solving for omega, Initial residual = 0.00109319, Final residual = 9.09671e-05, No Iterations 5
smoothSolver:  Solving for k, Initial residual = 0.0131382, Final residual = 0.00105473, No Iterations 6
ExecutionTime = 0.9 s  ClockTime = 0 s

scalarTransport execute: age
smoothSolver:  Solving for age, Initial residual = 0.018809, Final residual = 0.00183838, No Iterations 11

Time = 68

smoothSolver:  Solving for Ux, Initial residual = 0.0120862, Final residual = 0.000857304, No Iterations 6
smoothSolver:  Solving for Uy, Initial residual = 0.00726472, Final residual = 0.000530076, No Iterations 6
GAMG:  Solving for p, Initial residual = 0.00910185, Final residual = 0.000671761, No Iterations 2
time step continuity errors : sum local = 0.00166533, global = 0.000207627, cumulative = 0.0132168
smoothSolver:  Solving for omega, Initial residual = 0.00106592, Final residual = 8.80935e-05, No Iterations 5
smoothSolver:  Solving for k, Initial residual = 0.0128276, Final residual = 0.00102909, No Iterations 6
ExecutionTime = 0.91 s  ClockTime = 0 s

scalarTransport execute: age
smoothSolver:  Solving for age, Initial residual = 0.0186511, Final residual = 0.00171809, No Iterations 11

Time = 69

smoothSolver:  Solving for Ux, Initial residual = 0.0120149, Final residual = 0.000852372, No Iterations 6
smoothSolver:  Solving for Uy, Initial residual = 0.00728713, Final residual = 0.000535071, No Iterations 6
GAMG:  Solving for p, Initial residual = 0.00895819, Final residual = 0.000652462, No Iterations 2
time step continuity errors : sum local = 0.00161138, global = 0.000200485, cumulative = 0.0134173
smoothSolver:  Solving for omega, Initial residual = 0.00104012, Final residual = 8.53598e-05, No Iterations 5
smoothSolver:  Solving for k, Initial residual = 0.0125251, Final residual = 0.00100423, No Iterations 6
ExecutionTime = 0.93 s  ClockTime = 0 s

scalarTransport execute: age
smoothSolver:  Solving for age, Initial residual = 0.0174557, Final residual = 0.00161633, No Iterations 11

Time = 70

smoothSolver:  Solving for Ux, Initial residual = 0.0119575, Final residual = 0.000847336, No Iterations 6
smoothSolver:  Solving for Uy, Initial residual = 0.00729599, Final residual = 0.000538758, No Iterations 6
GAMG:  Solving for p, Initial residual = 0.00878248, Final residual = 0.000630058, No Iterations 2
time step continuity errors : sum local = 0.0015514, global = 0.00019343, cumulative = 0.0136107
smoothSolver:  Solving for omega, Initial residual = 0.00101195, Final residual = 8.26906e-05, No Iterations 5
smoothSolver:  Solving for k, Initial residual = 0.0122317, Final residual = 0.000980157, No Iterations 6
ExecutionTime = 0.94 s  ClockTime = 1 s

scalarTransport execute: age
smoothSolver:  Solving for age, Initial residual = 0.0159038, Final residual = 0.00147789, No Iterations 11

Time = 71

smoothSolver:  Solving for Ux, Initial residual = 0.0119011, Final residual = 0.000842862, No Iterations 6
smoothSolver:  Solving for Uy, Initial residual = 0.00729133, Final residual = 0.000541262, No Iterations 6
GAMG:  Solving for p, Initial residual = 0.00855768, Final residual = 0.00060951, No Iterations 2
time step continuity errors : sum local = 0.00149648, global = 0.000181159, cumulative = 0.0137918
smoothSolver:  Solving for omega, Initial residual = 0.000986377, Final residual = 8.01433e-05, No Iterations 5
smoothSolver:  Solving for k, Initial residual = 0.0119469, Final residual = 0.000956812, No Iterations 6
ExecutionTime = 0.95 s  ClockTime = 1 s

scalarTransport execute: age
smoothSolver:  Solving for age, Initial residual = 0.0147825, Final residual = 0.00138641, No Iterations 11

Time = 72

smoothSolver:  Solving for Ux, Initial residual = 0.011857, Final residual = 0.000840371, No Iterations 6
smoothSolver:  Solving for Uy, Initial residual = 0.00726796, Final residual = 0.000542354, No Iterations 6
GAMG:  Solving for p, Initial residual = 0.00836161, Final residual = 0.00058279, No Iterations 2
time step continuity errors : sum local = 0.00142641, global = 0.000168955, cumulative = 0.0139608
smoothSolver:  Solving for omega, Initial residual = 0.000959834, Final residual = 7.77389e-05, No Iterations 5
smoothSolver:  Solving for k, Initial residual = 0.0116699, Final residual = 0.000934124, No Iterations 6
ExecutionTime = 0.96 s  ClockTime = 1 s

scalarTransport execute: age
smoothSolver:  Solving for age, Initial residual = 0.013964, Final residual = 0.00123046, No Iterations 12

Time = 73

smoothSolver:  Solving for Ux, Initial residual = 0.0118025, Final residual = 0.000836887, No Iterations 6
smoothSolver:  Solving for Uy, Initial residual = 0.00723638, Final residual = 0.000542721, No Iterations 6
GAMG:  Solving for p, Initial residual = 0.00819417, Final residual = 0.00056017, No Iterations 2
time step continuity errors : sum local = 0.0013652, global = 0.000157066, cumulative = 0.0141179
smoothSolver:  Solving for omega, Initial residual = 0.000935126, Final residual = 7.54702e-05, No Iterations 5
smoothSolver:  Solving for k, Initial residual = 0.0114021, Final residual = 0.000912092, No Iterations 6
ExecutionTime = 0.98 s  ClockTime = 1 s

scalarTransport execute: age
smoothSolver:  Solving for age, Initial residual = 0.0133997, Final residual = 0.00126382, No Iterations 12

Time = 74

smoothSolver:  Solving for Ux, Initial residual = 0.0117316, Final residual = 0.000831819, No Iterations 6
smoothSolver:  Solving for Uy, Initial residual = 0.00719502, Final residual = 0.000542304, No Iterations 6
GAMG:  Solving for p, Initial residual = 0.00810071, Final residual = 0.000540238, No Iterations 2
time step continuity errors : sum local = 0.00131048, global = 0.000144438, cumulative = 0.0142623
smoothSolver:  Solving for omega, Initial residual = 0.000912064, Final residual = 7.33095e-05, No Iterations 5
smoothSolver:  Solving for k, Initial residual = 0.0111407, Final residual = 0.000890644, No Iterations 6
ExecutionTime = 0.99 s  ClockTime = 1 s

scalarTransport execute: age
smoothSolver:  Solving for age, Initial residual = 0.0132275, Final residual = 0.00124958, No Iterations 12

Time = 75

smoothSolver:  Solving for Ux, Initial residual = 0.0116517, Final residual = 0.00082569, No Iterations 6
smoothSolver:  Solving for Uy, Initial residual = 0.00715216, Final residual = 0.000541125, No Iterations 6
GAMG:  Solving for p, Initial residual = 0.008052, Final residual = 0.000523975, No Iterations 2
time step continuity errors : sum local = 0.00126516, global = 0.000131828, cumulative = 0.0143941
smoothSolver:  Solving for omega, Initial residual = 0.000891464, Final residual = 7.12346e-05, No Iterations 5
smoothSolver:  Solving for k, Initial residual = 0.0108882, Final residual = 0.000869691, No Iterations 6
ExecutionTime = 1 s  ClockTime = 1 s

scalarTransport execute: age
smoothSolver:  Solving for age, Initial residual = 0.0130527, Final residual = 0.00120085, No Iterations 12

Time = 76

smoothSolver:  Solving for Ux, Initial residual = 0.0115643, Final residual = 0.000818854, No Iterations 6
smoothSolver:  Solving for Uy, Initial residual = 0.00710103, Final residual = 0.000539091, No Iterations 6
GAMG:  Solving for p, Initial residual = 0.00799501, Final residual = 0.0005124, No Iterations 2
time step continuity errors : sum local = 0.00123157, global = 0.000120902, cumulative = 0.014515
smoothSolver:  Solving for omega, Initial residual = 0.000871103, Final residual = 6.92514e-05, No Iterations 5
smoothSolver:  Solving for k, Initial residual = 0.0106421, Final residual = 0.000849221, No Iterations 6
ExecutionTime = 1.03 s  ClockTime = 1 s

scalarTransport execute: age
smoothSolver:  Solving for age, Initial residual = 0.0128315, Final residual = 0.00118166, No Iterations 12

Time = 77

smoothSolver:  Solving for Ux, Initial residual = 0.0114687, Final residual = 0.000811704, No Iterations 6
smoothSolver:  Solving for Uy, Initial residual = 0.0070447, Final residual = 0.000536291, No Iterations 6
GAMG:  Solving for p, Initial residual = 0.00794442, Final residual = 0.000505908, No Iterations 2
time step continuity errors : sum local = 0.00121056, global = 0.000111572, cumulative = 0.0146266
smoothSolver:  Solving for omega, Initial residual = 0.00085092, Final residual = 6.73523e-05, No Iterations 5
smoothSolver:  Solving for k, Initial residual = 0.0104008, Final residual = 0.000829161, No Iterations 6
ExecutionTime = 1.04 s  ClockTime = 1 s

scalarTransport execute: age
smoothSolver:  Solving for age, Initial residual = 0.012663, Final residual = 0.00119055, No Iterations 12

Time = 78

smoothSolver:  Solving for Ux, Initial residual = 0.0113707, Final residual = 0.00080401, No Iterations 6
smoothSolver:  Solving for Uy, Initial residual = 0.00698515, Final residual = 0.000532658, No Iterations 6
GAMG:  Solving for p, Initial residual = 0.00789639, Final residual = 0.000502543, No Iterations 2
time step continuity errors : sum local = 0.00119698, global = 0.000104086, cumulative = 0.0147307
smoothSolver:  Solving for omega, Initial residual = 0.00083193, Final residual = 6.5505e-05, No Iterations 5
smoothSolver:  Solving for k, Initial residual = 0.0101639, Final residual = 0.000809502, No Iterations 6
ExecutionTime = 1.05 s  ClockTime = 1 s

scalarTransport execute: age
smoothSolver:  Solving for age, Initial residual = 0.0125089, Final residual = 0.00121527, No Iterations 12

Time = 79

smoothSolver:  Solving for Ux, Initial residual = 0.0112622, Final residual = 0.000795895, No Iterations 6
smoothSolver:  Solving for Uy, Initial residual = 0.00691825, Final residual = 0.000528119, No Iterations 6
GAMG:  Solving for p, Initial residual = 0.00786507, Final residual = 0.000500227, No Iterations 2
time step continuity errors : sum local = 0.00118564, global = 9.95205e-05, cumulative = 0.0148302
smoothSolver:  Solving for omega, Initial residual = 0.000812627, Final residual = 6.36808e-05, No Iterations 5
smoothSolver:  Solving for k, Initial residual = 0.00993121, Final residual = 0.000790193, No Iterations 6
ExecutionTime = 1.07 s  ClockTime = 1 s

scalarTransport execute: age
smoothSolver:  Solving for age, Initial residual = 0.0123541, Final residual = 0.00108163, No Iterations 13

Time = 80

smoothSolver:  Solving for Ux, Initial residual = 0.0111439, Final residual = 0.000787388, No Iterations 6
smoothSolver:  Solving for Uy, Initial residual = 0.00684973, Final residual = 0.000522524, No Iterations 6
GAMG:  Solving for p, Initial residual = 0.00786046, Final residual = 0.000496394, No Iterations 2
time step continuity errors : sum local = 0.0011705, global = 0.000105733, cumulative = 0.0149359
smoothSolver:  Solving for omega, Initial residual = 0.000793337, Final residual = 6.18971e-05, No Iterations 5
smoothSolver:  Solving for k, Initial residual = 0.00970271, Final residual = 0.000771221, No Iterations 6
ExecutionTime = 1.08 s  ClockTime = 1 s

scalarTransport execute: age
smoothSolver:  Solving for age, Initial residual = 0.0120851, Final residual = 0.00109016, No Iterations 13

Time = 81

smoothSolver:  Solving for Ux, Initial residual = 0.0110009, Final residual = 0.000776902, No Iterations 6
smoothSolver:  Solving for Uy, Initial residual = 0.00678182, Final residual = 0.000516556, No Iterations 6
GAMG:  Solving for p, Initial residual = 0.00784217, Final residual = 0.000499672, No Iterations 2
time step continuity errors : sum local = 0.00117265, global = 0.000102543, cumulative = 0.0150385
smoothSolver:  Solving for omega, Initial residual = 0.000778331, Final residual = 6.0186e-05, No Iterations 5
smoothSolver:  Solving for k, Initial residual = 0.00947694, Final residual = 0.000752572, No Iterations 6
ExecutionTime = 1.09 s  ClockTime = 1 s

scalarTransport execute: age
smoothSolver:  Solving for age, Initial residual = 0.0117122, Final residual = 0.00108814, No Iterations 13

Time = 82

smoothSolver:  Solving for Ux, Initial residual = 0.0108826, Final residual = 0.000768504, No Iterations 6
smoothSolver:  Solving for Uy, Initial residual = 0.00668108, Final residual = 0.000507707, No Iterations 6
GAMG:  Solving for p, Initial residual = 0.00783023, Final residual = 0.00049048, No Iterations 2
time step continuity errors : sum local = 0.00114462, global = 0.000101591, cumulative = 0.0151401
smoothSolver:  Solving for omega, Initial residual = 0.000760108, Final residual = 5.8552e-05, No Iterations 5
smoothSolver:  Solving for k, Initial residual = 0.00925583, Final residual = 0.000734206, No Iterations 6
ExecutionTime = 1.1 s  ClockTime = 1 s

scalarTransport execute: age
smoothSolver:  Solving for age, Initial residual = 0.0112782, Final residual = 0.00110016, No Iterations 13

Time = 83

smoothSolver:  Solving for Ux, Initial residual = 0.0107482, Final residual = 0.000759216, No Iterations 6
smoothSolver:  Solving for Uy, Initial residual = 0.00657572, Final residual = 0.000498897, No Iterations 6
GAMG:  Solving for p, Initial residual = 0.00779419, Final residual = 0.000482298, No Iterations 2
time step continuity errors : sum local = 0.00111856, global = 0.000101547, cumulative = 0.0152416
smoothSolver:  Solving for omega, Initial residual = 0.000743703, Final residual = 5.69298e-05, No Iterations 5
smoothSolver:  Solving for k, Initial residual = 0.00903699, Final residual = 0.000716113, No Iterations 6
ExecutionTime = 1.12 s  ClockTime = 1 s

scalarTransport execute: age
smoothSolver:  Solving for age, Initial residual = 0.0108454, Final residual = 0.000973918, No Iterations 14

Time = 84

smoothSolver:  Solving for Ux, Initial residual = 0.0106066, Final residual = 0.000749141, No Iterations 6
smoothSolver:  Solving for Uy, Initial residual = 0.00645711, Final residual = 0.000489014, No Iterations 6
GAMG:  Solving for p, Initial residual = 0.007738, Final residual = 0.000474364, No Iterations 2
time step continuity errors : sum local = 0.00109331, global = 0.00010178, cumulative = 0.0153434
smoothSolver:  Solving for omega, Initial residual = 0.000727378, Final residual = 5.53298e-05, No Iterations 5
smoothSolver:  Solving for k, Initial residual = 0.00882081, Final residual = 0.000698268, No Iterations 6
ExecutionTime = 1.13 s  ClockTime = 1 s

scalarTransport execute: age
smoothSolver:  Solving for age, Initial residual = 0.0105267, Final residual = 0.000984935, No Iterations 14

Time = 85

smoothSolver:  Solving for Ux, Initial residual = 0.0104579, Final residual = 0.00073853, No Iterations 6
smoothSolver:  Solving for Uy, Initial residual = 0.00632429, Final residual = 0.000477813, No Iterations 6
GAMG:  Solving for p, Initial residual = 0.00766589, Final residual = 0.000465552, No Iterations 2
time step continuity errors : sum local = 0.00106621, global = 0.000101971, cumulative = 0.0154454
smoothSolver:  Solving for omega, Initial residual = 0.00071039, Final residual = 5.36985e-05, No Iterations 5
smoothSolver:  Solving for k, Initial residual = 0.00860699, Final residual = 0.000680689, No Iterations 6
ExecutionTime = 1.14 s  ClockTime = 1 s

scalarTransport execute: age
smoothSolver:  Solving for age, Initial residual = 0.0102878, Final residual = 0.00099944, No Iterations 14

Time = 86

smoothSolver:  Solving for Ux, Initial residual = 0.0103015, Final residual = 0.000727363, No Iterations 6
smoothSolver:  Solving for Uy, Initial residual = 0.00618089, Final residual = 0.00046552, No Iterations 6
GAMG:  Solving for p, Initial residual = 0.00757715, Final residual = 0.000461282, No Iterations 2
time step continuity errors : sum local = 0.00105003, global = 0.000114626, cumulative = 0.01556
smoothSolver:  Solving for omega, Initial residual = 0.000691583, Final residual = 5.2021e-05, No Iterations 5
smoothSolver:  Solving for k, Initial residual = 0.00839668, Final residual = 0.000663364, No Iterations 6
ExecutionTime = 1.16 s  ClockTime = 1 s

scalarTransport execute: age
smoothSolver:  Solving for age, Initial residual = 0.0101516, Final residual = 0.000887147, No Iterations 15

Time = 87

smoothSolver:  Solving for Ux, Initial residual = 0.0101137, Final residual = 0.000713663, No Iterations 6
smoothSolver:  Solving for Uy, Initial residual = 0.00603896, Final residual = 0.000453412, No Iterations 6
GAMG:  Solving for p, Initial residual = 0.00750131, Final residual = 0.000450965, No Iterations 2
time step continuity errors : sum local = 0.00102138, global = 0.00011086, cumulative = 0.0156709
smoothSolver:  Solving for omega, Initial residual = 0.000679615, Final residual = 5.04434e-05, No Iterations 5
smoothSolver:  Solving for k, Initial residual = 0.00818793, Final residual = 0.000646254, No Iterations 6
ExecutionTime = 1.17 s  ClockTime = 1 s

scalarTransport execute: age
smoothSolver:  Solving for age, Initial residual = 0.0101175, Final residual = 0.000894685, No Iterations 15

Time = 88

smoothSolver:  Solving for Ux, Initial residual = 0.0099524, Final residual = 0.000702267, No Iterations 6
smoothSolver:  Solving for Uy, Initial residual = 0.00586017, Final residual = 0.000438058, No Iterations 6
GAMG:  Solving for p, Initial residual = 0.00736659, Final residual = 0.000432356, No Iterations 2
time step continuity errors : sum local = 0.00097354, global = 0.000109811, cumulative = 0.0157807
smoothSolver:  Solving for omega, Initial residual = 0.000662883, Final residual = 4.89058e-05, No Iterations 5
smoothSolver:  Solving for k, Initial residual = 0.00798226, Final residual = 0.000629373, No Iterations 6
ExecutionTime = 1.18 s  ClockTime = 1 s

scalarTransport execute: age
smoothSolver:  Solving for age, Initial residual = 0.0100853, Final residual = 0.000890835, No Iterations 15

Time = 89

smoothSolver:  Solving for Ux, Initial residual = 0.00977067, Final residual = 0.000689414, No Iterations 6
smoothSolver:  Solving for Uy, Initial residual = 0.00569428, Final residual = 0.000424074, No Iterations 6
GAMG:  Solving for p, Initial residual = 0.00725444, Final residual = 0.000423959, No Iterations 2
time step continuity errors : sum local = 0.000949713, global = 0.000108704, cumulative = 0.0158894
smoothSolver:  Solving for omega, Initial residual = 0.000648381, Final residual = 4.73827e-05, No Iterations 5
smoothSolver:  Solving for k, Initial residual = 0.0077779, Final residual = 0.000612738, No Iterations 6
ExecutionTime = 1.2 s  ClockTime = 1 s

scalarTransport execute: age
smoothSolver:  Solving for age, Initial residual = 0.0100509, Final residual = 0.000888822, No Iterations 15

Time = 90

smoothSolver:  Solving for Ux, Initial residual = 0.00957393, Final residual = 0.000675217, No Iterations 6
smoothSolver:  Solving for Uy, Initial residual = 0.00552373, Final residual = 0.000409689, No Iterations 6
GAMG:  Solving for p, Initial residual = 0.00715271, Final residual = 0.000422278, No Iterations 2
time step continuity errors : sum local = 0.000941431, global = 0.000107762, cumulative = 0.0159971
smoothSolver:  Solving for omega, Initial residual = 0.000626733, Final residual = 4.56939e-05, No Iterations 5
smoothSolver:  Solving for k, Initial residual = 0.00757579, Final residual = 0.000596407, No Iterations 6
ExecutionTime = 1.21 s  ClockTime = 1 s

scalarTransport execute: age
smoothSolver:  Solving for age, Initial residual = 0.00994384, Final residual = 0.000881215, No Iterations 15

Time = 91

smoothSolver:  Solving for Ux, Initial residual = 0.00936208, Final residual = 0.000660071, No Iterations 6
smoothSolver:  Solving for Uy, Initial residual = 0.00534609, Final residual = 0.00039458, No Iterations 6
GAMG:  Solving for p, Initial residual = 0.0070475, Final residual = 0.000420516, No Iterations 2
time step continuity errors : sum local = 0.000933478, global = 0.000106392, cumulative = 0.0161035
smoothSolver:  Solving for omega, Initial residual = 0.00061168, Final residual = 4.42928e-05, No Iterations 5
smoothSolver:  Solving for k, Initial residual = 0.00737591, Final residual = 0.000580238, No Iterations 6
ExecutionTime = 1.22 s  ClockTime = 1 s

scalarTransport execute: age
smoothSolver:  Solving for age, Initial residual = 0.0097453, Final residual = 0.000860873, No Iterations 15

Time = 92

smoothSolver:  Solving for Ux, Initial residual = 0.00914248, Final residual = 0.000644385, No Iterations 6
smoothSolver:  Solving for Uy, Initial residual = 0.00516643, Final residual = 0.000379166, No Iterations 6
GAMG:  Solving for p, Initial residual = 0.0069323, Final residual = 0.000418904, No Iterations 2
time step continuity errors : sum local = 0.000926237, global = 0.000105461, cumulative = 0.016209
smoothSolver:  Solving for omega, Initial residual = 0.000597703, Final residual = 4.2994e-05, No Iterations 5
smoothSolver:  Solving for k, Initial residual = 0.00717766, Final residual = 0.000564257, No Iterations 6
ExecutionTime = 1.24 s  ClockTime = 1 s

scalarTransport execute: age
smoothSolver:  Solving for age, Initial residual = 0.00939673, Final residual = 0.000934523, No Iterations 14

Time = 93

smoothSolver:  Solving for Ux, Initial residual = 0.00891316, Final residual = 0.00062816, No Iterations 6
smoothSolver:  Solving for Uy, Initial residual = 0.00498977, Final residual = 0.000363788, No Iterations 6
GAMG:  Solving for p, Initial residual = 0.00680591, Final residual = 0.000416101, No Iterations 2
time step continuity errors : sum local = 0.000916044, global = 0.000105014, cumulative = 0.016314
smoothSolver:  Solving for omega, Initial residual = 0.000582382, Final residual = 4.17056e-05, No Iterations 5
smoothSolver:  Solving for k, Initial residual = 0.00698166, Final residual = 0.000548484, No Iterations 6
ExecutionTime = 1.25 s  ClockTime = 1 s

scalarTransport execute: age
smoothSolver:  Solving for age, Initial residual = 0.00902522, Final residual = 0.000857396, No Iterations 14

Time = 94

smoothSolver:  Solving for Ux, Initial residual = 0.00867702, Final residual = 0.000611566, No Iterations 6
smoothSolver:  Solving for Uy, Initial residual = 0.00481441, Final residual = 0.000348505, No Iterations 6
GAMG:  Solving for p, Initial residual = 0.0066644, Final residual = 0.000412044, No Iterations 2
time step continuity errors : sum local = 0.000903744, global = 0.000104788, cumulative = 0.0164188
smoothSolver:  Solving for omega, Initial residual = 0.00056739, Final residual = 4.04764e-05, No Iterations 5
smoothSolver:  Solving for k, Initial residual = 0.00678761, Final residual = 0.000532904, No Iterations 6
ExecutionTime = 1.26 s  ClockTime = 1 s

scalarTransport execute: age
smoothSolver:  Solving for age, Initial residual = 0.00869707, Final residual = 0.000785721, No Iterations 14

Time = 95

smoothSolver:  Solving for Ux, Initial residual = 0.00843731, Final residual = 0.000594419, No Iterations 6
smoothSolver:  Solving for Uy, Initial residual = 0.00464119, Final residual = 0.000333343, No Iterations 6
GAMG:  Solving for p, Initial residual = 0.00652055, Final residual = 0.0004062, No Iterations 2
time step continuity errors : sum local = 0.000888095, global = 0.000104869, cumulative = 0.0165237
smoothSolver:  Solving for omega, Initial residual = 0.000552812, Final residual = 3.9309e-05, No Iterations 5
smoothSolver:  Solving for k, Initial residual = 0.00659575, Final residual = 0.000517507, No Iterations 6
ExecutionTime = 1.28 s  ClockTime = 1 s

scalarTransport execute: age
smoothSolver:  Solving for age, Initial residual = 0.00832867, Final residual = 0.000825243, No Iterations 13

Time = 96

smoothSolver:  Solving for Ux, Initial residual = 0.00818767, Final residual = 0.0005768, No Iterations 6
[...]

Time = 481

smoothSolver:  Solving for Ux, Initial residual = 9.67746e-07, Final residual = 8.77045e-08, No Iterations 5
smoothSolver:  Solving for Uy, Initial residual = 6.80846e-07, Final residual = 6.03817e-08, No Iterations 5
GAMG:  Solving for p, Initial residual = 2.71113e-06, Final residual = 1.36038e-07, No Iterations 2
time step continuity errors : sum local = 2.94947e-07, global = 5.75515e-09, cumulative = 0.0214196
smoothSolver:  Solving for omega, Initial residual = 1.06322e-07, Final residual = 1.05109e-08, No Iterations 4
smoothSolver:  Solving for k, Initial residual = 2.86926e-07, Final residual = 2.82292e-08, No Iterations 5
ExecutionTime = 6.09 s  ClockTime = 6 s

scalarTransport execute: age
smoothSolver:  Solving for age, Initial residual = 0.000343482, Final residual = 3.1594e-05, No Iterations 15

Time = 482

smoothSolver:  Solving for Ux, Initial residual = 9.26233e-07, Final residual = 8.3842e-08, No Iterations 5
smoothSolver:  Solving for Uy, Initial residual = 6.5323e-07, Final residual = 5.7875e-08, No Iterations 5
GAMG:  Solving for p, Initial residual = 2.60769e-06, Final residual = 1.317e-07, No Iterations 2
time step continuity errors : sum local = 2.85541e-07, global = 6.5859e-09, cumulative = 0.0214196
smoothSolver:  Solving for omega, Initial residual = 1.01604e-07, Final residual = 1.01371e-08, No Iterations 4
smoothSolver:  Solving for k, Initial residual = 2.80269e-07, Final residual = 2.77187e-08, No Iterations 5
ExecutionTime = 6.11 s  ClockTime = 6 s

scalarTransport execute: age
smoothSolver:  Solving for age, Initial residual = 0.000342639, Final residual = 3.15177e-05, No Iterations 15

Time = 483

smoothSolver:  Solving for Ux, Initial residual = 8.86889e-07, Final residual = 8.02465e-08, No Iterations 5
smoothSolver:  Solving for Uy, Initial residual = 6.28853e-07, Final residual = 5.57837e-08, No Iterations 5
GAMG:  Solving for p, Initial residual = 2.51275e-06, Final residual = 1.27811e-07, No Iterations 2
time step continuity errors : sum local = 2.77111e-07, global = 7.08404e-09, cumulative = 0.0214196
smoothSolver:  Solving for omega, Initial residual = 9.82172e-08, Final residual = 9.77023e-09, No Iterations 4
smoothSolver:  Solving for k, Initial residual = 2.74035e-07, Final residual = 2.72289e-08, No Iterations 5
ExecutionTime = 6.12 s  ClockTime = 6 s

scalarTransport execute: age
smoothSolver:  Solving for age, Initial residual = 0.0003418, Final residual = 3.14417e-05, No Iterations 15

Time = 484

smoothSolver:  Solving for Ux, Initial residual = 8.49264e-07, Final residual = 7.67803e-08, No Iterations 5
smoothSolver:  Solving for Uy, Initial residual = 6.03597e-07, Final residual = 5.35153e-08, No Iterations 5
GAMG:  Solving for p, Initial residual = 2.41657e-06, Final residual = 1.23201e-07, No Iterations 2
time step continuity errors : sum local = 2.67115e-07, global = 6.76216e-09, cumulative = 0.0214196
smoothSolver:  Solving for omega, Initial residual = 9.47799e-08, Final residual = 9.41817e-09, No Iterations 4
smoothSolver:  Solving for k, Initial residual = 2.6797e-07, Final residual = 2.67595e-08, No Iterations 5
ExecutionTime = 6.13 s  ClockTime = 6 s

scalarTransport execute: age
smoothSolver:  Solving for age, Initial residual = 0.000340965, Final residual = 3.13661e-05, No Iterations 15

Time = 485

smoothSolver:  Solving for Ux, Initial residual = 8.12932e-07, Final residual = 7.34111e-08, No Iterations 5
smoothSolver:  Solving for Uy, Initial residual = 5.78751e-07, Final residual = 5.12703e-08, No Iterations 5
GAMG:  Solving for p, Initial residual = 2.32139e-06, Final residual = 1.16894e-07, No Iterations 2
time step continuity errors : sum local = 2.53441e-07, global = 4.943e-09, cumulative = 0.0214196
smoothSolver:  Solving for omega, Initial residual = 9.14938e-08, Final residual = 9.08061e-09, No Iterations 4
smoothSolver:  Solving for k, Initial residual = 2.62205e-07, Final residual = 1.68805e-08, No Iterations 6
ExecutionTime = 6.14 s  ClockTime = 6 s

scalarTransport execute: age
smoothSolver:  Solving for age, Initial residual = 0.000340132, Final residual = 3.12908e-05, No Iterations 15

Time = 486

smoothSolver:  Solving for Ux, Initial residual = 7.75387e-07, Final residual = 6.98839e-08, No Iterations 5
smoothSolver:  Solving for Uy, Initial residual = 5.54733e-07, Final residual = 4.91072e-08, No Iterations 5
GAMG:  Solving for p, Initial residual = 2.23012e-06, Final residual = 1.1305e-07, No Iterations 2
time step continuity errors : sum local = 2.45108e-07, global = 5.50056e-09, cumulative = 0.0214196
smoothSolver:  Solving for omega, Initial residual = 8.75683e-08, Final residual = 8.76093e-09, No Iterations 4
smoothSolver:  Solving for k, Initial residual = 2.56122e-07, Final residual = 1.65976e-08, No Iterations 6
ExecutionTime = 6.16 s  ClockTime = 6 s

scalarTransport execute: age
smoothSolver:  Solving for age, Initial residual = 0.000339304, Final residual = 3.12159e-05, No Iterations 15

Time = 487

smoothSolver:  Solving for Ux, Initial residual = 7.39903e-07, Final residual = 6.66008e-08, No Iterations 5
smoothSolver:  Solving for Uy, Initial residual = 5.33446e-07, Final residual = 4.72796e-08, No Iterations 5
GAMG:  Solving for p, Initial residual = 2.14661e-06, Final residual = 1.09577e-07, No Iterations 2
time step continuity errors : sum local = 2.37578e-07, global = 5.74842e-09, cumulative = 0.0214196
smoothSolver:  Solving for omega, Initial residual = 8.46351e-08, Final residual = 8.44285e-09, No Iterations 4
smoothSolver:  Solving for k, Initial residual = 2.50458e-07, Final residual = 1.63326e-08, No Iterations 6
ExecutionTime = 6.17 s  ClockTime = 6 s

scalarTransport execute: age
smoothSolver:  Solving for age, Initial residual = 0.00033848, Final residual = 3.11415e-05, No Iterations 15

Time = 488

smoothSolver:  Solving for Ux, Initial residual = 7.05983e-07, Final residual = 6.34416e-08, No Iterations 5
smoothSolver:  Solving for Uy, Initial residual = 5.11206e-07, Final residual = 4.52826e-08, No Iterations 5
GAMG:  Solving for p, Initial residual = 2.06132e-06, Final residual = 1.05533e-07, No Iterations 2
time step continuity errors : sum local = 2.28809e-07, global = 6.01431e-09, cumulative = 0.0214196
smoothSolver:  Solving for omega, Initial residual = 8.14182e-08, Final residual = 8.13351e-09, No Iterations 4
smoothSolver:  Solving for k, Initial residual = 2.4503e-07, Final residual = 1.60802e-08, No Iterations 6
ExecutionTime = 6.18 s  ClockTime = 6 s

scalarTransport execute: age
smoothSolver:  Solving for age, Initial residual = 0.000337659, Final residual = 3.10673e-05, No Iterations 15

Time = 489

smoothSolver:  Solving for Ux, Initial residual = 6.73065e-07, Final residual = 6.03729e-08, No Iterations 5
smoothSolver:  Solving for Uy, Initial residual = 4.8948e-07, Final residual = 4.33164e-08, No Iterations 5
GAMG:  Solving for p, Initial residual = 1.97574e-06, Final residual = 1.00039e-07, No Iterations 2
time step continuity errors : sum local = 2.16897e-07, global = 4.27084e-09, cumulative = 0.0214196
smoothSolver:  Solving for omega, Initial residual = 7.88247e-08, Final residual = 7.83578e-09, No Iterations 4
smoothSolver:  Solving for k, Initial residual = 2.40023e-07, Final residual = 1.5842e-08, No Iterations 6
ExecutionTime = 6.2 s  ClockTime = 6 s

scalarTransport execute: age
smoothSolver:  Solving for age, Initial residual = 0.000336842, Final residual = 3.09932e-05, No Iterations 15

Time = 490

smoothSolver:  Solving for Ux, Initial residual = 6.40214e-07, Final residual = 5.72847e-08, No Iterations 5
smoothSolver:  Solving for Uy, Initial residual = 4.6776e-07, Final residual = 4.13387e-08, No Iterations 5
GAMG:  Solving for p, Initial residual = 1.89336e-06, Final residual = 9.6494e-08, No Iterations 2
time step continuity errors : sum local = 2.09212e-07, global = 4.52046e-09, cumulative = 0.0214196
smoothSolver:  Solving for omega, Initial residual = 7.50378e-08, Final residual = 7.53897e-09, No Iterations 4
smoothSolver:  Solving for k, Initial residual = 2.35122e-07, Final residual = 1.56111e-08, No Iterations 6
ExecutionTime = 6.21 s  ClockTime = 6 s

scalarTransport execute: age
smoothSolver:  Solving for age, Initial residual = 0.000336028, Final residual = 3.09197e-05, No Iterations 15

Time = 491

smoothSolver:  Solving for Ux, Initial residual = 6.08857e-07, Final residual = 5.43887e-08, No Iterations 5
smoothSolver:  Solving for Uy, Initial residual = 4.48836e-07, Final residual = 3.97088e-08, No Iterations 5
GAMG:  Solving for p, Initial residual = 1.81754e-06, Final residual = 9.32152e-08, No Iterations 2
time step continuity errors : sum local = 2.02103e-07, global = 4.50979e-09, cumulative = 0.0214196
smoothSolver:  Solving for omega, Initial residual = 7.23236e-08, Final residual = 7.24695e-09, No Iterations 4
smoothSolver:  Solving for k, Initial residual = 2.30666e-07, Final residual = 1.53911e-08, No Iterations 6
ExecutionTime = 6.22 s  ClockTime = 6 s

scalarTransport execute: age
smoothSolver:  Solving for age, Initial residual = 0.000335219, Final residual = 3.08464e-05, No Iterations 15

Time = 492

smoothSolver:  Solving for Ux, Initial residual = 5.7882e-07, Final residual = 5.16033e-08, No Iterations 5
smoothSolver:  Solving for Uy, Initial residual = 4.29262e-07, Final residual = 3.79522e-08, No Iterations 5
GAMG:  Solving for p, Initial residual = 1.74146e-06, Final residual = 8.95486e-08, No Iterations 2
time step continuity errors : sum local = 1.94153e-07, global = 4.49248e-09, cumulative = 0.0214196
smoothSolver:  Solving for omega, Initial residual = 6.93963e-08, Final residual = 6.96508e-09, No Iterations 4
smoothSolver:  Solving for k, Initial residual = 2.26389e-07, Final residual = 1.51791e-08, No Iterations 6
ExecutionTime = 6.23 s  ClockTime = 6 s

scalarTransport execute: age
smoothSolver:  Solving for age, Initial residual = 0.000334412, Final residual = 3.07734e-05, No Iterations 15

Time = 493

smoothSolver:  Solving for Ux, Initial residual = 5.49752e-07, Final residual = 4.89012e-08, No Iterations 5
smoothSolver:  Solving for Uy, Initial residual = 4.10008e-07, Final residual = 3.6214e-08, No Iterations 5
GAMG:  Solving for p, Initial residual = 1.666e-06, Final residual = 8.56698e-08, No Iterations 2
time step continuity errors : sum local = 1.85744e-07, global = 4.53862e-09, cumulative = 0.0214196
smoothSolver:  Solving for omega, Initial residual = 6.65693e-08, Final residual = 6.69008e-09, No Iterations 4
smoothSolver:  Solving for k, Initial residual = 2.22327e-07, Final residual = 1.49737e-08, No Iterations 6
ExecutionTime = 6.25 s  ClockTime = 6 s

scalarTransport execute: age
smoothSolver:  Solving for age, Initial residual = 0.000333609, Final residual = 3.07009e-05, No Iterations 15

Time = 494

smoothSolver:  Solving for Ux, Initial residual = 5.21328e-07, Final residual = 4.62755e-08, No Iterations 5
smoothSolver:  Solving for Uy, Initial residual = 3.91474e-07, Final residual = 3.45463e-08, No Iterations 5
GAMG:  Solving for p, Initial residual = 1.59293e-06, Final residual = 8.18654e-08, No Iterations 2
time step continuity errors : sum local = 1.77495e-07, global = 4.54585e-09, cumulative = 0.0214196
smoothSolver:  Solving for omega, Initial residual = 6.3882e-08, Final residual = 6.42225e-09, No Iterations 4
smoothSolver:  Solving for k, Initial residual = 2.18449e-07, Final residual = 1.47748e-08, No Iterations 6
ExecutionTime = 6.26 s  ClockTime = 6 s

scalarTransport execute: age
smoothSolver:  Solving for age, Initial residual = 0.00033281, Final residual = 3.06287e-05, No Iterations 15

Time = 495

smoothSolver:  Solving for Ux, Initial residual = 4.93815e-07, Final residual = 4.37277e-08, No Iterations 5
smoothSolver:  Solving for Uy, Initial residual = 3.73633e-07, Final residual = 3.29403e-08, No Iterations 5
GAMG:  Solving for p, Initial residual = 1.52305e-06, Final residual = 7.82499e-08, No Iterations 2
time step continuity errors : sum local = 1.69656e-07, global = 4.55657e-09, cumulative = 0.0214196
smoothSolver:  Solving for omega, Initial residual = 6.11945e-08, Final residual = 6.16178e-09, No Iterations 4
smoothSolver:  Solving for k, Initial residual = 2.14741e-07, Final residual = 1.4581e-08, No Iterations 6
ExecutionTime = 6.27 s  ClockTime = 6 s

scalarTransport execute: age
smoothSolver:  Solving for age, Initial residual = 0.000332014, Final residual = 3.05568e-05, No Iterations 15

Time = 496

smoothSolver:  Solving for Ux, Initial residual = 4.67087e-07, Final residual = 4.12612e-08, No Iterations 5
smoothSolver:  Solving for Uy, Initial residual = 3.56212e-07, Final residual = 3.13782e-08, No Iterations 5
GAMG:  Solving for p, Initial residual = 1.45553e-06, Final residual = 7.39896e-08, No Iterations 2
time step continuity errors : sum local = 1.6042e-07, global = 3.06128e-09, cumulative = 0.0214196
smoothSolver:  Solving for omega, Initial residual = 5.89737e-08, Final residual = 9.94011e-09, No Iterations 3
smoothSolver:  Solving for k, Initial residual = 2.11441e-07, Final residual = 1.43994e-08, No Iterations 6
ExecutionTime = 6.28 s  ClockTime = 6 s

scalarTransport execute: age
smoothSolver:  Solving for age, Initial residual = 0.000331223, Final residual = 3.0485e-05, No Iterations 15

Time = 497

smoothSolver:  Solving for Ux, Initial residual = 4.40209e-07, Final residual = 3.87489e-08, No Iterations 5
smoothSolver:  Solving for Uy, Initial residual = 3.38589e-07, Final residual = 2.97952e-08, No Iterations 5
GAMG:  Solving for p, Initial residual = 1.39049e-06, Final residual = 7.12675e-08, No Iterations 2
time step continuity errors : sum local = 1.54518e-07, global = 2.96961e-09, cumulative = 0.0214197
smoothSolver:  Solving for omega, Initial residual = 5.69902e-08, Final residual = 9.73592e-09, No Iterations 3
smoothSolver:  Solving for k, Initial residual = 2.08079e-07, Final residual = 1.42215e-08, No Iterations 6
ExecutionTime = 6.3 s  ClockTime = 6 s

scalarTransport execute: age
smoothSolver:  Solving for age, Initial residual = 0.000330435, Final residual = 3.04134e-05, No Iterations 15

Time = 498

smoothSolver:  Solving for Ux, Initial residual = 4.14752e-07, Final residual = 3.64143e-08, No Iterations 5
smoothSolver:  Solving for Uy, Initial residual = 3.22904e-07, Final residual = 2.84376e-08, No Iterations 5
GAMG:  Solving for p, Initial residual = 1.33049e-06, Final residual = 6.86138e-08, No Iterations 2
time step continuity errors : sum local = 1.48764e-07, global = 2.61181e-09, cumulative = 0.0214197
smoothSolver:  Solving for omega, Initial residual = 5.55254e-08, Final residual = 9.48389e-09, No Iterations 3
smoothSolver:  Solving for k, Initial residual = 2.04894e-07, Final residual = 1.40443e-08, No Iterations 6
ExecutionTime = 6.31 s  ClockTime = 6 s

scalarTransport execute: age
smoothSolver:  Solving for age, Initial residual = 0.00032965, Final residual = 3.03419e-05, No Iterations 15

Time = 499

smoothSolver:  Solving for Ux, Initial residual = 3.90502e-07, Final residual = 3.41847e-08, No Iterations 5
smoothSolver:  Solving for Uy, Initial residual = 3.06712e-07, Final residual = 2.69805e-08, No Iterations 5
GAMG:  Solving for p, Initial residual = 1.26917e-06, Final residual = 6.56072e-08, No Iterations 2
time step continuity errors : sum local = 1.42245e-07, global = 2.23137e-09, cumulative = 0.0214197
smoothSolver:  Solving for omega, Initial residual = 5.36697e-08, Final residual = 9.20871e-09, No Iterations 3
smoothSolver:  Solving for k, Initial residual = 2.01739e-07, Final residual = 1.38678e-08, No Iterations 6
ExecutionTime = 6.32 s  ClockTime = 6 s

scalarTransport execute: age
smoothSolver:  Solving for age, Initial residual = 0.000328868, Final residual = 3.02706e-05, No Iterations 15

Time = 500

smoothSolver:  Solving for Ux, Initial residual = 3.67231e-07, Final residual = 3.20411e-08, No Iterations 5
smoothSolver:  Solving for Uy, Initial residual = 2.90857e-07, Final residual = 2.55496e-08, No Iterations 5
GAMG:  Solving for p, Initial residual = 1.20826e-06, Final residual = 6.2472e-08, No Iterations 2
time step continuity errors : sum local = 1.35448e-07, global = 1.87724e-09, cumulative = 0.0214197
smoothSolver:  Solving for omega, Initial residual = 5.17574e-08, Final residual = 8.91376e-09, No Iterations 3
smoothSolver:  Solving for k, Initial residual = 1.98657e-07, Final residual = 1.36924e-08, No Iterations 6
ExecutionTime = 6.33 s  ClockTime = 6 s

scalarTransport execute: age
smoothSolver:  Solving for age, Initial residual = 0.000328089, Final residual = 3.01994e-05, No Iterations 15

Time = 501

smoothSolver:  Solving for Ux, Initial residual = 3.44803e-07, Final residual = 2.99809e-08, No Iterations 5
smoothSolver:  Solving for Uy, Initial residual = 2.75698e-07, Final residual = 2.41857e-08, No Iterations 5
GAMG:  Solving for p, Initial residual = 1.14997e-06, Final residual = 5.94511e-08, No Iterations 2
time step continuity errors : sum local = 1.28898e-07, global = 1.49778e-09, cumulative = 0.0214197
smoothSolver:  Solving for omega, Initial residual = 4.98678e-08, Final residual = 8.60773e-09, No Iterations 3
smoothSolver:  Solving for k, Initial residual = 1.9568e-07, Final residual = 1.35184e-08, No Iterations 6
ExecutionTime = 6.35 s  ClockTime = 6 s

scalarTransport execute: age
smoothSolver:  Solving for age, Initial residual = 0.000327313, Final residual = 3.01285e-05, No Iterations 15

Time = 502

smoothSolver:  Solving for Ux, Initial residual = 3.23423e-07, Final residual = 2.80155e-08, No Iterations 5
smoothSolver:  Solving for Uy, Initial residual = 2.61172e-07, Final residual = 2.28809e-08, No Iterations 5
GAMG:  Solving for p, Initial residual = 1.09501e-06, Final residual = 5.66287e-08, No Iterations 2
time step continuity errors : sum local = 1.22779e-07, global = 1.1315e-09, cumulative = 0.0214197
smoothSolver:  Solving for omega, Initial residual = 4.79064e-08, Final residual = 8.29455e-09, No Iterations 3
smoothSolver:  Solving for k, Initial residual = 1.92819e-07, Final residual = 1.33459e-08, No Iterations 6
ExecutionTime = 6.36 s  ClockTime = 6 s

scalarTransport execute: age
smoothSolver:  Solving for age, Initial residual = 0.00032654, Final residual = 3.00578e-05, No Iterations 15

Time = 503

smoothSolver:  Solving for Ux, Initial residual = 3.03121e-07, Final residual = 2.61669e-08, No Iterations 5
smoothSolver:  Solving for Uy, Initial residual = 2.47099e-07, Final residual = 2.16242e-08, No Iterations 5
GAMG:  Solving for p, Initial residual = 1.04317e-06, Final residual = 5.39818e-08, No Iterations 2
time step continuity errors : sum local = 1.1704e-07, global = 7.5837e-10, cumulative = 0.0214197
smoothSolver:  Solving for omega, Initial residual = 4.59794e-08, Final residual = 7.97889e-09, No Iterations 3
smoothSolver:  Solving for k, Initial residual = 1.90098e-07, Final residual = 1.3175e-08, No Iterations 6
ExecutionTime = 6.37 s  ClockTime = 6 s

scalarTransport execute: age
smoothSolver:  Solving for age, Initial residual = 0.000325772, Final residual = 2.99873e-05, No Iterations 15

Time = 504

smoothSolver:  Solving for Ux, Initial residual = 2.84007e-07, Final residual = 2.44238e-08, No Iterations 5
smoothSolver:  Solving for Uy, Initial residual = 2.33496e-07, Final residual = 2.04108e-08, No Iterations 5
GAMG:  Solving for p, Initial residual = 9.93581e-07, Final residual = 5.14641e-08, No Iterations 2
time step continuity errors : sum local = 1.11581e-07, global = 3.80427e-10, cumulative = 0.0214197
smoothSolver:  Solving for omega, Initial residual = 4.40785e-08, Final residual = 7.66325e-09, No Iterations 3
smoothSolver:  Solving for k, Initial residual = 1.87491e-07, Final residual = 1.30055e-08, No Iterations 6
ExecutionTime = 6.38 s  ClockTime = 6 s


SIMPLE solution converged in 504 iterations

scalarTransport execute: age
smoothSolver:  Solving for age, Initial residual = 0.000325007, Final residual = 2.9917e-05, No Iterations 15

End

